# Attachment '- UiO-68.cif'

data_UiO-68-Cyrstal06Fullopt
_database_code_depnum_ccdc_archive 'CCDC 889531'
#TrackingRef '- UiO-68.cif'

_audit_creation_date             2012-06-25
_audit_creation_method           'Materials Studio'
_symmetry_space_group_name_H-M   F-43M
_symmetry_Int_Tables_number      216
_symmetry_cell_setting           cubic
loop_
_symmetry_equiv_pos_as_xyz
x,y,z
-x,-y,z
-x,y,-z
x,-y,-z
z,x,y
z,-x,-y
-z,-x,y
-z,x,-y
y,z,x
-y,z,-x
y,-z,-x
-y,-z,x
y,x,z
-y,-x,z
y,-x,-z
-y,x,-z
x,z,y
-x,z,-y
-x,-z,y
x,-z,-y
z,y,x
z,-y,-x
-z,y,-x
-z,-y,x
x,y+1/2,z+1/2
-x,-y+1/2,z+1/2
-x,y+1/2,-z+1/2
x,-y+1/2,-z+1/2
z,x+1/2,y+1/2
z,-x+1/2,-y+1/2
-z,-x+1/2,y+1/2
-z,x+1/2,-y+1/2
y,z+1/2,x+1/2
-y,z+1/2,-x+1/2
y,-z+1/2,-x+1/2
-y,-z+1/2,x+1/2
y,x+1/2,z+1/2
-y,-x+1/2,z+1/2
y,-x+1/2,-z+1/2
-y,x+1/2,-z+1/2
x,z+1/2,y+1/2
-x,z+1/2,-y+1/2
-x,-z+1/2,y+1/2
x,-z+1/2,-y+1/2
z,y+1/2,x+1/2
z,-y+1/2,-x+1/2
-z,y+1/2,-x+1/2
-z,-y+1/2,x+1/2
x+1/2,y,z+1/2
-x+1/2,-y,z+1/2
-x+1/2,y,-z+1/2
x+1/2,-y,-z+1/2
z+1/2,x,y+1/2
z+1/2,-x,-y+1/2
-z+1/2,-x,y+1/2
-z+1/2,x,-y+1/2
y+1/2,z,x+1/2
-y+1/2,z,-x+1/2
y+1/2,-z,-x+1/2
-y+1/2,-z,x+1/2
y+1/2,x,z+1/2
-y+1/2,-x,z+1/2
y+1/2,-x,-z+1/2
-y+1/2,x,-z+1/2
x+1/2,z,y+1/2
-x+1/2,z,-y+1/2
-x+1/2,-z,y+1/2
x+1/2,-z,-y+1/2
z+1/2,y,x+1/2
z+1/2,-y,-x+1/2
-z+1/2,y,-x+1/2
-z+1/2,-y,x+1/2
x+1/2,y+1/2,z
-x+1/2,-y+1/2,z
-x+1/2,y+1/2,-z
x+1/2,-y+1/2,-z
z+1/2,x+1/2,y
z+1/2,-x+1/2,-y
-z+1/2,-x+1/2,y
-z+1/2,x+1/2,-y
y+1/2,z+1/2,x
-y+1/2,z+1/2,-x
y+1/2,-z+1/2,-x
-y+1/2,-z+1/2,x
y+1/2,x+1/2,z
-y+1/2,-x+1/2,z
y+1/2,-x+1/2,-z
-y+1/2,x+1/2,-z
x+1/2,z+1/2,y
-x+1/2,z+1/2,-y
-x+1/2,-z+1/2,y
x+1/2,-z+1/2,-y
z+1/2,y+1/2,x
z+1/2,-y+1/2,-x
-z+1/2,y+1/2,-x
-z+1/2,-y+1/2,x
_cell_length_a                   33.3310
_cell_length_b                   33.3310
_cell_length_c                   33.3310
_cell_angle_alpha                90.0000
_cell_angle_beta                 90.0000
_cell_angle_gamma                90.0000
loop_
_atom_site_label
_atom_site_type_symbol
_atom_site_fract_x
_atom_site_fract_y
_atom_site_fract_z
_atom_site_U_iso_or_equiv
_atom_site_adp_type
_atom_site_occupancy
H1 H 0.50542 -0.58567 -0.17648 0.00000 Uiso 1.00
H25 H 0.50785 -0.63720 -0.22875 0.00000 Uiso 1.00
H49 H 0.50883 -0.67893 -0.27032 0.00000 Uiso 1.00
C1 C 0.50600 -0.61715 -0.16825 0.00000 Uiso 1.00
C25 C 0.50735 -0.64670 -0.19765 0.00000 Uiso 1.00
C49 C 0.50880 -0.70995 -0.26055 0.00000 Uiso 1.00
O1 O 0.50165 -0.55950 -0.10745 0.00000 Uiso 1.00
H73 H 0.55900 -0.94100 -0.55900 0.00000 Uiso 1.00
C73 C 0.00288 -0.09588 -0.09588 0.00000 Uiso 1.00
C85 C 0.00518 -0.12758 -0.12758 0.00000 Uiso 1.00
C97 C 0.00863 -0.21942 -0.21942 0.00000 Uiso 1.00
C109 C 0.00790 -0.18780 -0.18780 0.00000 Uiso 1.00
O25 O 0.95767 -0.54233 -0.54233 0.00000 Uiso 1.00
O29 O 0.03113 -0.46887 -0.46887 0.00000 Uiso 1.00
Zr1 Zr 0.92430 -0.50000 -0.50000 0.00000 Uiso 1.00
loop_
_geom_bond_atom_site_label_1
_geom_bond_atom_site_label_2
_geom_bond_distance
_geom_bond_site_symmetry_2
_ccdc_geom_bond_type
H1 C1 1.084 . S
H25 C25 1.084 . S
H49 C49 1.084 . S
C1 C25 1.390 . A
C1 C85 1.400 73_545 A
C25 C109 1.409 73_545 A
C49 C49 1.391 20_544 A
C49 C97 1.407 73_545 A
O1 C73 1.273 73_545 A
O1 Zr1 2.249 9_654 S
H73 O25 0.963 7 S
C73 C85 1.496 . S
C73 O1 1.273 73_455 A
C73 O1 1.273 65_455 A
C85 C1 1.400 65_455 A
C85 C1 1.400 73_455 A
C97 C49 1.407 65_455 A
C97 C49 1.407 73_455 A
C97 C109 1.491 . S
C109 C25 1.409 65_455 A
C109 C25 1.409 73_455 A
O25 H73 0.963 10 S
O25 Zr1 2.284 . S
O25 Zr1 2.284 57_653 S
O25 Zr1 2.284 77_635 S
O29 Zr1 2.088 2_645 S
O29 Zr1 2.088 58_455 S
O29 Zr1 2.088 78_554 S
Zr1 O25 2.284 4_544 S
Zr1 O29 2.088 3_654 S
Zr1 O29 2.088 2_645 S
Zr1 O1 2.249 5_645 S
Zr1 O1 2.249 6_654 S
Zr1 O1 2.249 21_654 S
Zr1 O1 2.249 22_645 S
