#{'_ref': 'TBD', '_srcid': 'CAKYAQ_clean', 'submitters': [{'name': 'Dalar Nazarian Jeff Camp and David Sholl', 'email': 'dalar@gatech.edu jcamp6@gatech.edu'}], '_method': 'VASP DFT with PBE;DDEC'}
data_Zn2H7C12O7
_symmetry_space_group_name_H-M   'P 1'
_cell_length_a   14.56500004
_cell_length_b   15.85500000
_cell_length_c   18.85600026
_cell_angle_alpha   90.39799859
_cell_angle_beta   90.11399866
_cell_angle_gamma   90.00400067
_symmetry_Int_Tables_number   1
_chemical_formula_structural   Zn2H7C12O7
_chemical_formula_sum   'Zn16 H56 C96 O56'
_cell_volume   4354.26616559
_cell_formula_units_Z   8
loop_
 _symmetry_equiv_pos_site_id
 _symmetry_equiv_pos_as_xyz
  1  'x, y, z'
loop_
 _atom_site_label
 _atom_site_fract_x
 _atom_site_fract_y
 _atom_site_fract_z
 _atom_site_charge
 Zn 0.527883 0.429923 0.040176   1.082578
 Zn 0.343466 0.363408 0.034243   1.043936
 Zn 0.46927 0.071022 0.538257   1.07768
 Zn 0.656125 0.136763 0.533936   1.049482
 Zn 0.468585 0.569965 0.956749   1.087565
 Zn 0.655689 0.634223 0.962851   1.047648
 Zn 0.530761 0.928666 0.458588   1.089228
 Zn 0.343913 0.863111 0.463009   1.068924
 Zn 0.96901 0.926495 0.959223   1.089114
 Zn 0.15606 0.862449 0.963457   1.06615
 Zn 0.031394 0.569911 0.456964   1.087569
 Zn 0.844233 0.634199 0.462795   1.048216
 Zn 0.03086 0.070599 0.038068   1.078641
 Zn 0.843903 0.135955 0.03381   1.049726
 Zn 0.972142 0.429863 0.540208   1.082746
 Zn 0.156628 0.363509 0.534419   1.045194
 H 0.347846 0.508271 0.033208   0.408212
 H 0.633368 0.297711 0.86425   0.127434
 H 0.659511 0.235694 0.743136   0.121361
 H 0.387912 0.129306 0.745859   0.123343
 H 0.361651 0.191306 0.866283   0.116769
 H 0.110844 0.617383 0.01121   0.111674
 H 0.05268 0.351919 0.01663   0.109059
 H 0.651299 0.992201 0.53382   0.409061
 H 0.366808 0.202169 0.362524   0.119957
 H 0.33985 0.265362 0.242582   0.120585
 H 0.61216 0.370281 0.24643   0.124958
 H 0.639348 0.306788 0.365562   0.123744
 H 0.888341 0.881911 0.509878   0.110095
 H 0.947241 0.147316 0.517734   0.10751
 H 0.648684 0.490256 0.963564   0.410133
 H 0.364798 0.702897 0.13268   0.127255
 H 0.339556 0.76504 0.253827   0.121193
 H 0.612115 0.869336 0.250695   0.124202
 H 0.637498 0.807108 0.130252   0.121594
 H 0.888157 0.381083 0.985627   0.108531
 H 0.946339 0.646528 0.0   0.100538
 H 0.34861 0.007599 0.463085   0.433981
 H 0.633096 0.796985 0.634938   0.126202
 H 0.659501 0.733085 0.754669   0.120206
 H 0.386985 0.628699 0.749861   0.123921
 H 0.360444 0.692633 0.630877   0.124203
 H 0.111542 0.117661 0.486791   0.098434
 H 0.052606 0.85228 0.478892   0.1125
 H 0.15087 0.006316 0.963225   0.432924
 H 0.866232 0.795321 0.134269   0.126671
 H 0.83986 0.73183 0.254117   0.120487
 H 0.112924 0.628627 0.250826   0.124389
 H 0.139461 0.692255 0.13174   0.1236
 H 0.388175 0.116157 0.986076   0.099363
 H 0.447835 0.850904 0.0   0.101777
 H 0.851071 0.490284 0.463563   0.409135
 H 0.135084 0.702198 0.633467   0.12734
 H 0.159846 0.763506 0.75507   0.121426
 H 0.887961 0.869229 0.750399   0.123542
 H 0.862954 0.807638 0.629583   0.122077
 H 0.611543 0.381546 0.485947   0.108425
 H 0.55338 0.646979 0.479903   0.111938
 H 0.849422 0.9916 0.033988   0.407126
 H 0.133748 0.201043 0.862345   0.120692
 H 0.160489 0.264674 0.742641   0.12006
 H 0.888081 0.369364 0.746153   0.125096
 H 0.861041 0.305247 0.864974   0.122994
 H 0.612122 0.881141 0.010344   0.11042
 H 0.552487 0.146424 0.017056   0.108164
 H 0.152317 0.508367 0.53346   0.408485
 H 0.8668 0.298022 0.363472   0.127536
 H 0.84087 0.235999 0.242254   0.121655
 H 0.112239 0.129141 0.246281   0.12324
 H 0.138292 0.191129 0.366806   0.116964
 H 0.389047 0.617948 0.510825   0.111172
 H 0.4472 0.352503 0.516924   0.108769
 C 0.476015 0.292839 0.94045   0.678544
 C 0.495575 0.249129 0.87183   -0.086678
 C 0.580306 0.260539 0.837875   -0.070686
 C 0.594755 0.226207 0.770711   -0.072356
 C 0.524751 0.179938 0.737041   -0.088618
 C 0.441208 0.166183 0.772132   -0.072602
 C 0.426635 0.200661 0.839063   -0.071955
 C 0.537274 0.147863 0.663149   0.694291
 C 0.189751 0.46621 0.033034   0.657913
 C 0.091193 0.482943 0.016037   -0.080693
 C 0.061557 0.566129 0.005689   -0.08636
 C 0.028569 0.416149 0.008621   -0.085242
 C 0.524475 0.206177 0.438671   0.68134
 C 0.504974 0.249896 0.370512   -0.088825
 C 0.419844 0.239216 0.3366   -0.070554
 C 0.404943 0.274243 0.270134   -0.07421
 C 0.474852 0.320609 0.237213   -0.089661
 C 0.558921 0.333437 0.27221   -0.06964
 C 0.573997 0.298115 0.338397   -0.070836
 C 0.461592 0.353668 0.164111   0.693778
 C 0.809812 0.033521 0.532956   0.661309
 C 0.908294 0.016392 0.515921   -0.088872
 C 0.93771 0.93307 0.504891   -0.087971
 C 0.971113 0.082986 0.509178   -0.071793
 C 0.521919 0.706497 0.056123   0.675644
 C 0.50304 0.750337 0.124857   -0.088852
 C 0.418297 0.739613 0.158973   -0.069969
 C 0.40434 0.774036 0.22617   -0.073523
 C 0.474826 0.819788 0.25976   -0.090566
 C 0.558401 0.832866 0.224525   -0.07455
 C 0.572491 0.798246 0.157562   -0.070294
 C 0.462617 0.85197 0.333675   0.691372
 C 0.809222 0.53238 0.963979   0.660038
 C 0.907808 0.515513 0.980876   -0.095546
 C 0.937459 0.432326 0.99118   -0.079549
 C 0.970449 0.582297 0.0   -0.05856
 C 0.475536 0.793552 0.558323   0.676162
 C 0.494872 0.749501 0.6264   -0.087136
 C 0.579877 0.759874 0.660578   -0.074628
 C 0.594485 0.724435 0.726953   -0.072379
 C 0.524369 0.678057 0.759612   -0.091464
 C 0.440428 0.665551 0.724339   -0.070202
 C 0.425689 0.701173 0.658221   -0.072532
 C 0.53715 0.644719 0.832735   0.696104
 C 0.19011 0.96616 0.463865   0.833486
 C 0.091575 0.983208 0.48077   -0.133531
 C 0.062148 0.066526 0.491773   -0.096128
 C 0.028749 0.916612 0.487472   -0.058294
 C 0.024022 0.792465 0.058607   0.676636
 C 0.004752 0.748434 0.126581   -0.089888
 C 0.919551 0.758549 0.160279   -0.073514
 C 0.904965 0.723369 0.226691   -0.073293
 C 0.975275 0.677484 0.259769   -0.091652
 C 0.059385 0.665146 0.224936   -0.069838
 C 0.074118 0.700545 0.158795   -0.070803
 C 0.962601 0.644481 0.332925   0.69535
 C 0.309953 0.964363 0.963812   0.82003
 C 0.408515 0.981726 0.98066   -0.143449
 C 0.437746 0.065189 0.991324   -0.08665
 C 0.471551 0.915336 0.0   -0.04218
 C 0.978244 0.706581 0.5561   0.678539
 C 0.997136 0.75028 0.624931   -0.087574
 C 0.08164 0.739021 0.65955   -0.070374
 C 0.095315 0.772978 0.726984   -0.074112
 C 0.024844 0.818852 0.76024   -0.090265
 C 0.941601 0.832613 0.724457   -0.073509
 C 0.92775 0.798381 0.65729   -0.07149
 C 0.036708 0.850457 0.834371   0.690298
 C 0.690458 0.532697 0.463945   0.657078
 C 0.591919 0.515959 0.480836   -0.08004
 C 0.562293 0.432817 0.491339   -0.088256
 C 0.529313 0.582768 0.488042   -0.079918
 C 0.976287 0.204674 0.938254   0.682748
 C 0.995498 0.248545 0.870149   -0.089408
 C 0.080623 0.238114 0.836399   -0.07067
 C 0.095418 0.273405 0.770056   -0.073685
 C 0.025466 0.319886 0.737093   -0.08919
 C 0.941387 0.332438 0.771926   -0.070085
 C 0.926389 0.296783 0.83796   -0.069872
 C 0.038647 0.353381 0.664134   0.694404
 C 0.690297 0.033002 0.032926   0.65851
 C 0.591799 0.015588 0.015816   -0.083407
 C 0.562586 0.932135 0.005087   -0.089786
 C 0.528777 0.081985 0.00874   -0.079957
 C 0.023991 0.292874 0.440429   0.679897
 C 0.004477 0.249216 0.371714   -0.087803
 C 0.919855 0.260762 0.337349   -0.070466
 C 0.905535 0.226414 0.270128   -0.072529
 C 0.975528 0.180002 0.236802   -0.089086
 C 0.058959 0.166132 0.272291   -0.072783
 C 0.073411 0.200627 0.339278   -0.07148
 C 0.963009 0.147837 0.162894   0.694617
 C 0.310226 0.466732 0.533053   0.660435
 C 0.408677 0.483509 0.515994   -0.085475
 C 0.438282 0.56666 0.505446   -0.082741
 C 0.471273 0.416705 0.508757   -0.078165
 O 0.403186 0.480833 0.008546   -0.993532
 O 0.539843 0.3367 0.968858   -0.597274
 O 0.394617 0.28466 0.96526   -0.593569
 O 0.468977 0.107537 0.635812   -0.606217
 O 0.612978 0.163185 0.632137   -0.60186
 O 0.214697 0.387502 0.027998   -0.614122
 O 0.242307 0.526365 0.049566   -0.562814
 O 0.59581 0.01921 0.509129   -0.996069
 O 0.460301 0.1627 0.466304   -0.609778
 O 0.605847 0.214289 0.463883   -0.58713
 O 0.528697 0.396141 0.138022   -0.603995
 O 0.386481 0.337052 0.132313   -0.60336
 O 0.784952 0.112185 0.527967   -0.613428
 O 0.757285 0.973693 0.549487   -0.566328
 O 0.594023 0.518421 0.988118   -0.994378
 O 0.457407 0.663116 0.028028   -0.594481
 O 0.603186 0.71416 0.03097   -0.591463
 O 0.530994 0.892255 0.360962   -0.609925
 O 0.386956 0.836753 0.364784   -0.601168
 O 0.784635 0.611246 0.969081   -0.6092
 O 0.756405 0.472458 0.9475   -0.569668
 O 0.404144 0.980591 0.487721   -0.997754
 O 0.539708 0.837138 0.530785   -0.603935
 O 0.394171 0.785563 0.533059   -0.588556
 O 0.468895 0.603845 0.858945   -0.60738
 O 0.612815 0.659527 0.864339   -0.603956
 O 0.215039 0.887521 0.468885   -0.78534
 O 0.242609 0.0 0.447432   -0.541319
 O 0.095628 0.979415 0.988025   -0.998187
 O 0.959256 0.835339 0.030754   -0.60254
 O 0.105503 0.785326 0.033803   -0.588238
 O 0.030985 0.603772 0.359339   -0.607358
 O 0.88701 0.659392 0.364345   -0.603767
 O 0.285176 0.885653 0.968989   -0.768688
 O 0.257231 0.0 0.947278   -0.543712
 O 0.90588 0.518384 0.48812   -0.993906
 O 0.042691 0.66318 0.528132   -0.596688
 O 0.896939 0.714284 0.530798   -0.592548
 O 0.968997 0.892051 0.861032   -0.60882
 O 0.111483 0.833433 0.866327   -0.600917
 O 0.715259 0.611506 0.469063   -0.610071
 O 0.743081 0.472719 0.447447   -0.569188
 O 0.904697 0.01831 0.009103   -0.994645
 O 0.041106 0.162251 0.96641   -0.607641
 O 0.894664 0.211671 0.962908   -0.589634
 O 0.971507 0.396026 0.63806   -0.60471
 O 0.113698 0.336966 0.632413   -0.603887
 O 0.714993 0.111708 0.027836   -0.614279
 O 0.743018 0.973357 0.049632   -0.566022
 O 0.096828 0.480841 0.508829   -0.994767
 O 0.960168 0.336676 0.46873   -0.597644
 O 0.105417 0.284686 0.465439   -0.594609
 O 0.031189 0.107429 0.135724   -0.606583
 O 0.887243 0.163212 0.131722   -0.602337
 O 0.285289 0.388012 0.528052   -0.614362
 O 0.257732 0.526848 0.549628   -0.562646
