#{'_ref': 'TBD', '_srcid': 'CAKYAQ_clean', 'submitters': [{'name': 'Dalar Nazarian Jeff Camp and David Sholl', 'email': 'dalar@gatech.edu jcamp6@gatech.edu'}], '_method': 'VASP DFT with PBE;DDEC'}
data_La2H4C11N4O11
_symmetry_space_group_name_H-M   'P 1'
_cell_length_a   8.65100000
_cell_length_b   15.34500000
_cell_length_c   17.42100000
_cell_angle_alpha   90.00000000
_cell_angle_beta   90.00000000
_cell_angle_gamma   90.00100067
_symmetry_Int_Tables_number   1
_chemical_formula_structural   La2H4C11N4O11
_chemical_formula_sum   'La8 H16 C44 N16 O44'
_cell_volume   2312.63069449
_cell_formula_units_Z   4
loop_
 _symmetry_equiv_pos_site_id
 _symmetry_equiv_pos_as_xyz
  1  'x, y, z'
loop_
 _atom_site_label
 _atom_site_fract_x
 _atom_site_fract_y
 _atom_site_fract_z
 _atom_site_charge
 La 0.64421 0.264782 0.388901   2.171003
 La 0.8558 0.764762 0.611078   2.170842
 La 0.355788 0.735242 0.888889   2.164036
 La 0.144206 0.23526 0.11109   2.171119
 La 0.355792 0.73524 0.611078   2.170786
 La 0.144202 0.235263 0.388901   2.17102
 La 0.644214 0.264781 0.11109   2.171066
 La 0.855794 0.764763 0.888889   2.163985
 H 0.448068 0.007258 0.598507   0.1689
 H 0.980576 0.068057 0.55363   0.306306
 H 0.051936 0.507246 0.401464   0.169318
 H 0.51942 0.568056 0.446359   0.306431
 H 0.551944 0.992762 0.098528   0.168913
 H 0.019436 0.931963 0.053645   0.305428
 H 0.948068 0.492774 0.901451   0.16842
 H 0.48058 0.431969 0.94634   0.306579
 H 0.55194 0.99277 0.401476   0.169197
 H 0.01943 0.931965 0.446355   0.306329
 H 0.948074 0.49277 0.598523   0.169042
 H 0.480586 0.431964 0.553633   0.306309
 H 0.44806 0.007258 0.901458   0.168517
 H 0.980568 0.068056 0.946338   0.306544
 H 0.051938 0.507248 0.098529   0.168927
 H 0.519424 0.568053 0.053633   0.305404
 C 0.444986 0.17463 0.502908   0.635037
 C 0.327786 0.117168 0.538226   0.067856
 C 0.343022 0.039337 0.580066   -0.18182
 C 0.192586 0.009994 0.591116   -0.031025
 C 0.13376 0.926333 0.622726   0.720871
 C 0.055008 0.674611 0.497078   0.635427
 C 0.172206 0.617154 0.461756   0.067769
 C 0.156978 0.539326 0.419912   -0.1821
 C 0.307416 0.509986 0.40887   -0.029936
 C 0.366258 0.426353 0.37726   0.720243
 C 0.555014 0.825399 0.0   0.625647
 C 0.672224 0.882855 0.038241   0.069938
 C 0.65699 0.960684 0.080082   -0.183525
 C 0.807424 0.990031 0.091125   -0.030819
 C 0.866246 0.073694 0.122733   0.721067
 C 0.944998 0.325413 0.99709   0.635118
 C 0.82779 0.382867 0.961742   0.067855
 C 0.843024 0.460695 0.919898   -0.181499
 C 0.692588 0.490038 0.908855   -0.031074
 C 0.633746 0.573673 0.877247   0.72059
 C 0.555016 0.825395 0.497073   0.635501
 C 0.672218 0.882858 0.461757   0.067592
 C 0.656986 0.960689 0.419918   -0.181731
 C 0.807422 0.990031 0.408869   -0.030494
 C 0.866246 0.073691 0.377256   0.720866
 C 0.944994 0.325412 0.502901   0.635175
 C 0.827798 0.382864 0.538231   0.067786
 C 0.84303 0.460692 0.580076   -0.181909
 C 0.692594 0.490034 0.591118   -0.030872
 C 0.63375 0.57367 0.622722   0.720619
 C 0.444988 0.174624 0.99709   0.635184
 C 0.327778 0.117166 0.961742   0.067904
 C 0.343014 0.039335 0.919902   -0.181702
 C 0.19258 0.009989 0.908858   -0.030962
 C 0.133756 0.926328 0.877247   0.720637
 C 0.055002 0.674614 0.0   0.62583
 C 0.172212 0.617155 0.038236   0.069803
 C 0.156982 0.539328 0.080081   -0.183582
 C 0.307418 0.509988 0.091126   -0.03041
 C 0.366258 0.426353 0.122735   0.720344
 C 0.449932 0.209986 0.249996   1.045194
 C 0.050026 0.709944 0.749984   1.045756
 C 0.550082 0.790024 0.749984   1.045531
 C 0.94996 0.290068 0.249995   1.045302
 N 0.098426 0.06987 0.556337   -0.008576
 N 0.177192 0.135284 0.523596   -0.344317
 N 0.40157 0.569869 0.443643   -0.00844
 N 0.322798 0.635272 0.476395   -0.345049
 N 0.901584 0.930148 0.056357   -0.009179
 N 0.822816 0.864741 0.023605   -0.349632
 N 0.59843 0.430154 0.943625   -0.008455
 N 0.677198 0.364751 0.97638   -0.344257
 N 0.901578 0.930154 0.443647   -0.008105
 N 0.822812 0.864741 0.476389   -0.345092
 N 0.598438 0.430149 0.556348   -0.008425
 N 0.677206 0.364747 0.523592   -0.344514
 N 0.098418 0.069872 0.943626   -0.008464
 N 0.177186 0.135279 0.976377   -0.344347
 N 0.401572 0.569866 0.056346   -0.009309
 N 0.322804 0.635273 0.023599   -0.34946
 O 0.5862 0.155575 0.503182   -0.599721
 O 0.392684 0.243064 0.467079   -0.773249
 O 0.988572 0.9129 0.619666   -0.710639
 O 0.23476 0.873306 0.647107   -0.679423
 O 0.392694 0.189238 0.315864   -0.832221
 O 0.913802 0.655563 0.496794   -0.599482
 O 0.107308 0.74305 0.532901   -0.773467
 O 0.51145 0.412935 0.380313   -0.710274
 O 0.265264 0.373324 0.352873   -0.679
 O 0.107304 0.689231 0.684117   -0.831584
 O 0.413806 0.844447 0.003197   -0.598338
 O 0.607314 0.756958 0.967069   -0.753455
 O 0.011432 0.087129 0.119677   -0.711083
 O 0.76524 0.126715 0.147119   -0.679526
 O 0.6073 0.810789 0.815852   -0.833042
 O 0.086192 0.344459 0.996785   -0.599284
 O 0.892696 0.256974 0.032912   -0.773538
 O 0.488556 0.587091 0.8803   -0.709725
 O 0.734744 0.6267 0.852859   -0.680529
 O 0.892698 0.310795 0.184128   -0.832014
 O 0.4138 0.844448 0.496796   -0.599488
 O 0.607316 0.756959 0.5329   -0.773595
 O 0.011432 0.087126 0.380314   -0.710608
 O 0.765242 0.126715 0.352873   -0.679033
 O 0.607302 0.810788 0.684116   -0.831441
 O 0.0862 0.344457 0.503187   -0.599574
 O 0.892694 0.256972 0.467079   -0.773563
 O 0.488558 0.587085 0.619668   -0.710481
 O 0.734744 0.6267 0.647107   -0.679515
 O 0.892698 0.310795 0.315863   -0.832338
 O 0.586194 0.155576 0.996782   -0.599418
 O 0.392688 0.243064 0.03291   -0.773428
 O 0.98857 0.912894 0.880302   -0.709816
 O 0.23476 0.873307 0.852859   -0.680355
 O 0.392694 0.189237 0.184128   -0.831886
 O 0.91381 0.655563 0.003194   -0.598456
 O 0.107304 0.743049 0.967066   -0.753468
 O 0.511448 0.412932 0.119678   -0.710698
 O 0.265262 0.373323 0.147117   -0.679452
 O 0.107302 0.689231 0.815852   -0.833132
 O 0.579594 0.255275 0.249995   -0.863676
 O 0.920418 0.755267 0.749984   -0.862664
 O 0.4204 0.744751 0.749983   -0.862553
 O 0.079584 0.244759 0.249995   -0.863555
