#{'_ref': 'TBD', '_srcid': 'CAKYAQ_clean', 'submitters': [{'name': 'Dalar Nazarian Jeff Camp and David Sholl', 'email': 'dalar@gatech.edu jcamp6@gatech.edu'}], '_method': 'VASP DFT with PBE;DDEC'}
data_CaH6C5O4
_symmetry_space_group_name_H-M   'P 1'
_cell_length_a   8.75000044
_cell_length_b   12.59700000
_cell_length_c   12.59799979
_cell_angle_alpha   114.64700102
_cell_angle_beta   103.31999882
_cell_angle_gamma   103.36999853
_symmetry_Int_Tables_number   1
_chemical_formula_structural   CaH6C5O4
_chemical_formula_sum   'Ca6 H36 C30 O24'
_cell_volume   1140.93847866
_cell_formula_units_Z   6
loop_
 _symmetry_equiv_pos_site_id
 _symmetry_equiv_pos_as_xyz
  1  'x, y, z'
loop_
 _atom_site_label
 _atom_site_fract_x
 _atom_site_fract_y
 _atom_site_fract_z
 _atom_site_charge
 Ca 0.012892 0.426029 0.623478   1.575025
 Ca 0.586988 0.196835 0.574109   1.573963
 Ca 0.38929 0.376003 0.803191   1.573725
 Ca 0.987126 0.573973 0.376495   1.575025
 Ca 0.413024 0.803168 0.425863   1.573751
 Ca 0.610722 0.623999 0.196783   1.573846
 H 0.961508 0.184761 0.903669   0.122379
 H 0.764742 0.134436 0.782181   0.118261
 H 0.964932 0.403544 0.004776   0.074814
 H 0.778574 0.35935 0.878908   0.064357
 H 0.626062 0.205127 0.937124   0.128807
 H 0.812154 0.273231 0.075486   0.126994
 H 0.775848 0.716932 0.813593   0.122311
 H 0.629802 0.646143 0.864901   0.117624
 H 0.560364 0.600753 0.595524   0.075431
 H 0.418536 0.518959 0.64028   0.064238
 H 0.4204 0.730686 0.794786   0.129007
 H 0.53801 0.801119 0.726104   0.127359
 H 0.060576 0.098072 0.283163   0.122578
 H 0.985058 0.219685 0.354024   0.118333
 H 0.960636 0.99535 0.399432   0.0732
 H 0.899722 0.121172 0.480859   0.064189
 H 0.691474 0.065001 0.268894   0.129022
 H 0.739272 0.926446 0.198869   0.126643
 H 0.038504 0.815242 0.096302   0.122466
 H 0.235276 0.86557 0.217792   0.118249
 H 0.035084 0.596459 0.995197   0.074808
 H 0.22144 0.640654 0.121066   0.064373
 H 0.373954 0.794874 0.06285   0.128904
 H 0.187862 0.726772 0.924487   0.126962
 H 0.224166 0.28307 0.186379   0.122308
 H 0.370212 0.353861 0.135072   0.117745
 H 0.439652 0.399248 0.404448   0.075541
 H 0.581478 0.481043 0.359692   0.064187
 H 0.579614 0.269318 0.205186   0.128915
 H 0.462004 0.198883 0.273866   0.127271
 H 0.939438 0.901932 0.716813   0.122604
 H 0.01496 0.780316 0.64595   0.118372
 H 0.039376 0.004651 0.600541   0.073196
 H 0.100292 0.878831 0.519115   0.064339
 H 0.30854 0.935005 0.731081   0.129049
 H 0.26074 0.073558 0.801103   0.126612
 C 0.977948 0.254424 0.775581   0.816969
 C 0.883758 0.214804 0.84865   -0.381714
 C 0.84545 0.325462 0.935411   -0.007173
 C 0.73822 0.290383 0.005329   -0.380726
 C 0.678314 0.394671 0.069862   0.800349
 C 0.722312 0.519651 0.744497   0.813275
 C 0.668072 0.632319 0.78413   -0.378276
 C 0.519112 0.609097 0.673867   -0.009284
 C 0.447118 0.713984 0.709278   -0.38124
 C 0.283006 0.674903 0.605437   0.797907
 C 0.20335 0.224835 0.480426   0.814828
 C 0.037012 0.152614 0.367791   -0.380848
 C 0.910972 0.065283 0.390872   -0.006414
 C 0.734774 0.996169 0.285843   -0.379982
 C 0.60914 0.931127 0.324743   0.796561
 C 0.022062 0.745568 0.224383   0.817036
 C 0.116258 0.785204 0.151325   -0.381775
 C 0.154564 0.674542 0.064564   -0.007002
 C 0.261794 0.709619 0.994646   -0.381046
 C 0.321696 0.605328 0.930111   0.800703
 C 0.277698 0.48035 0.255472   0.812788
 C 0.331942 0.367684 0.215844   -0.378324
 C 0.480902 0.390906 0.326106   -0.009416
 C 0.552896 0.286019 0.290694   -0.380888
 C 0.717008 0.325096 0.394532   0.797798
 C 0.796666 0.775174 0.519541   0.814583
 C 0.962992 0.847381 0.632185   -0.380614
 C 0.089038 0.934717 0.609101   -0.006832
 C 0.265234 0.003834 0.714128   -0.380001
 C 0.390876 0.068876 0.675233   0.796424
 O 0.892194 0.267362 0.686718   -0.805833
 O 0.13478 0.276972 0.808511   -0.718014
 O 0.556764 0.408889 0.005913   -0.756181
 O 0.751514 0.470218 0.188345   -0.77709
 O 0.623612 0.418108 0.731955   -0.804472
 O 0.85649 0.529811 0.721634   -0.717053
 O 0.14754 0.596614 0.591356   -0.755371
 O 0.280416 0.718798 0.530225   -0.775775
 O 0.20595 0.313463 0.581845   -0.806405
 O 0.327102 0.191449 0.470329   -0.716382
 O 0.552756 0.995088 0.40382   -0.754542
 O 0.561302 0.812082 0.279877   -0.775278
 O 0.10782 0.732642 0.313254   -0.805908
 O 0.865232 0.723028 0.19146   -0.718073
 O 0.443246 0.59111 0.99406   -0.756266
 O 0.2485 0.529784 0.811628   -0.777279
 O 0.376404 0.581896 0.26802   -0.804245
 O 0.143522 0.47019 0.278336   -0.716859
 O 0.852472 0.403388 0.408615   -0.755455
 O 0.719596 0.281204 0.469746   -0.775735
 O 0.794062 0.686538 0.418125   -0.806324
 O 0.67291 0.808555 0.529644   -0.716254
 O 0.447256 0.004914 0.596155   -0.75438
 O 0.438714 0.187921 0.720096   -0.775277
