#{'_ref': 'TBD', '_srcid': 'CAKYAQ_clean', 'submitters': [{'name': 'Dalar Nazarian Jeff Camp and David Sholl', 'email': 'dalar@gatech.edu jcamp6@gatech.edu'}], '_method': 'VASP DFT with PBE;DDEC'}
data_ZnH2C6SO4
_symmetry_space_group_name_H-M   'P 1'
_cell_length_a   10.00900045
_cell_length_b   13.15399958
_cell_length_c   15.54700000
_cell_angle_alpha   89.99800070
_cell_angle_beta   89.94600148
_cell_angle_gamma   89.97199925
_symmetry_Int_Tables_number   1
_chemical_formula_structural   ZnH2C6SO4
_chemical_formula_sum   'Zn8 H16 C48 S8 O32'
_cell_volume   2046.8917979
_cell_formula_units_Z   8
loop_
 _symmetry_equiv_pos_site_id
 _symmetry_equiv_pos_as_xyz
  1  'x, y, z'
loop_
 _atom_site_label
 _atom_site_fract_x
 _atom_site_fract_y
 _atom_site_fract_z
 _atom_site_charge
 Zn 0.110338 0.942723 0.303715   1.038294
 Zn 0.099724 0.258658 0.247931   1.035696
 Zn 0.400014 0.058369 0.803937   1.039402
 Zn 0.41059 0.742185 0.747912   1.034342
 Zn 0.899692 0.444673 0.199906   1.039267
 Zn 0.907156 0.75965 0.255717   1.035495
 Zn 0.61074 0.558986 0.699885   1.035017
 Zn 0.600246 0.243719 0.755794   1.032844
 H 0.530578 0.974718 0.357178   0.125519
 H 0.780794 0.041553 0.337848   0.115132
 H 0.660362 0.777955 0.466782   0.136393
 H 0.50461 0.862929 0.584887   0.137285
 H 0.979174 0.027457 0.856289   0.125768
 H 0.729118 0.96065 0.836631   0.116199
 H 0.847798 0.2254 0.96684   0.137199
 H 0.003884 0.141408 0.085026   0.136449
 H 0.477464 0.47523 0.144355   0.125057
 H 0.227312 0.541822 0.164866   0.114957
 H 0.347886 0.276767 0.036651   0.136296
 H 0.504218 0.361048 0.918678   0.137178
 H 0.03099 0.526324 0.645145   0.125301
 H 0.281334 0.45978 0.665206   0.114962
 H 0.163878 0.724741 0.537349   0.135736
 H 0.006938 0.641958 0.419092   0.136666
 C 0.466806 0.111377 0.289722   -0.198831
 C 0.55953 0.044783 0.325072   -0.063285
 C 0.691488 0.079567 0.31475   -0.063576
 C 0.697678 0.171914 0.271625   -0.18871
 C 0.319982 0.102675 0.28828   0.728293
 C 0.817322 0.232154 0.252007   0.701098
 C 0.796618 0.904924 0.484528   -0.205312
 C 0.681992 0.848294 0.500784   -0.059607
 C 0.599666 0.89354 0.563227   -0.062393
 C 0.652946 0.983738 0.594649   -0.19021
 C 0.895618 0.883126 0.416978   0.694729
 C 0.594454 0.049795 0.661285   0.708626
 C 0.043428 0.891059 0.788591   -0.196873
 C 0.950416 0.957505 0.823979   -0.064772
 C 0.818544 0.922743 0.813467   -0.062647
 C 0.812616 0.83065 0.76997   -0.188694
 C 0.190244 0.900381 0.787816   0.728655
 C 0.693262 0.770231 0.750291   0.700774
 C 0.712788 0.097542 0.984424   -0.204386
 C 0.826722 0.154899 0.0   -0.060524
 C 0.909252 0.11021 0.063329   -0.063517
 C 0.856928 0.019658 0.094722   -0.189508
 C 0.613522 0.118621 0.916912   0.695559
 C 0.915626 0.953882 0.161437   0.709912
 C 0.541544 0.610729 0.213315   -0.196947
 C 0.448662 0.544799 0.177314   -0.064553
 C 0.316664 0.579416 0.1883   -0.062968
 C 0.310512 0.670981 0.23259   -0.188452
 C 0.68847 0.602133 0.214224   0.727468
 C 0.191332 0.731636 0.252866   0.699793
 C 0.21252 0.404485 0.019062   -0.205047
 C 0.326732 0.347289 0.002765   -0.059515
 C 0.409394 0.392146 0.940325   -0.062998
 C 0.356932 0.482672 0.908935   -0.189128
 C 0.113282 0.383448 0.086704   0.695868
 C 0.415996 0.54855 0.842375   0.70707
 C 0.967384 0.390925 0.714446   -0.197012
 C 0.06002 0.456869 0.678155   -0.065463
 C 0.192 0.4223 0.688882   -0.062795
 C 0.19823 0.330772 0.733214   -0.188675
 C 0.820586 0.399614 0.715586   0.72736
 C 0.317856 0.270727 0.753243   0.699927
 C 0.297818 0.596249 0.51946   -0.205215
 C 0.184264 0.654191 0.503287   -0.059652
 C 0.101272 0.610099 0.440741   -0.06193
 C 0.152788 0.519313 0.409166   -0.190061
 C 0.397288 0.616967 0.586885   0.694351
 C 0.093054 0.454211 0.342312   0.710444
 S 0.541556 0.216256 0.243432   0.195146
 S 0.803678 0.013587 0.546751   0.209189
 S 0.969 0.786473 0.741784   0.194483
 S 0.706728 0.988844 0.046685   0.20741
 S 0.466806 0.714798 0.261001   0.194039
 S 0.206416 0.513269 0.956883   0.208544
 S 0.042142 0.286881 0.76202   0.195225
 S 0.302796 0.487568 0.457071   0.208821
 O 0.268068 0.026746 0.326639   -0.582961
 O 0.799752 0.315102 0.211001   -0.617983
 O 0.982226 0.952162 0.399985   -0.589142
 O 0.482798 0.021555 0.693078   -0.600927
 O 0.25835 0.172834 0.24785   -0.606971
 O 0.884736 0.797846 0.37862   -0.603711
 O 0.66024 0.129573 0.681905   -0.60351
 O 0.929536 0.19638 0.277884   -0.587243
 O 0.240034 0.976974 0.826437   -0.581149
 O 0.711072 0.68848 0.707565   -0.614769
 O 0.528242 0.0486 0.899889   -0.590592
 O 0.02698 0.982256 0.1934   -0.598733
 O 0.254 0.830992 0.747809   -0.6099
 O 0.622506 0.204095 0.87872   -0.603292
 O 0.849842 0.873946 0.181873   -0.606124
 O 0.581028 0.804301 0.777834   -0.588573
 O 0.740382 0.526852 0.174805   -0.581679
 O 0.210252 0.813182 0.295731   -0.61531
 O 0.02786 0.453456 0.103716   -0.58936
 O 0.527466 0.520005 0.81045   -0.597702
 O 0.7504 0.671342 0.255589   -0.608583
 O 0.122368 0.298024 0.124986   -0.604985
 O 0.350646 0.628746 0.821996   -0.603783
 O 0.078694 0.698144 0.225802   -0.588113
 O 0.768986 0.475378 0.676813   -0.582035
 O 0.300612 0.188965 0.795952   -0.616692
 O 0.48267 0.546965 0.603855   -0.586274
 O 0.982876 0.484605 0.309919   -0.597707
 O 0.75864 0.329839 0.756291   -0.606935
 O 0.388468 0.702463 0.62517   -0.606072
 O 0.156554 0.37314 0.322155   -0.607862
 O 0.429852 0.305471 0.725857   -0.587314
