#{'_ref': 'TBD', '_srcid': 'CAKYAQ_clean', 'submitters': [{'name': 'Dalar Nazarian Jeff Camp and David Sholl', 'email': 'dalar@gatech.edu jcamp6@gatech.edu'}], '_method': 'VASP DFT with PBE;DDEC'}
data_Ba(CO2)2
_symmetry_space_group_name_H-M   'P 1'
_cell_length_a   6.31499966
_cell_length_b   8.74950033
_cell_length_c   9.77500000
_cell_angle_alpha   64.71100026
_cell_angle_beta   84.48000055
_cell_angle_gamma   83.62700152
_symmetry_Int_Tables_number   1
_chemical_formula_structural   Ba(CO2)2
_chemical_formula_sum   'Ba4 C8 O16'
_cell_volume   484.605091997
_cell_formula_units_Z   4
loop_
 _symmetry_equiv_pos_site_id
 _symmetry_equiv_pos_as_xyz
  1  'x, y, z'
loop_
 _atom_site_label
 _atom_site_fract_x
 _atom_site_fract_y
 _atom_site_fract_z
 _atom_site_charge
 Ba 0.719544 0.975008 0.199022   1.624764
 Ba 0.786328 0.361338 0.433856   1.666771
 Ba 0.280536 0.025078 0.801088   1.624722
 Ba 0.213634 0.638588 0.566248   1.666645
 C 0.182648 0.089216 0.32728   0.584383
 C 0.325338 0.181622 0.383288   0.577982
 C 0.141176 0.719882 0.185962   0.562958
 C 0.38885 0.714454 0.188524   0.58394
 C 0.817306 0.910578 0.67286   0.58374
 C 0.674566 0.81819 0.616884   0.57885
 C 0.858856 0.280104 0.814106   0.563274
 C 0.611166 0.28552 0.811648   0.583978
 O 0.989072 0.145526 0.305804   -0.684754
 O 0.269096 0.958352 0.311998   -0.706538
 O 0.238938 0.23507 0.479286   -0.715975
 O 0.51881 0.193312 0.333008   -0.686702
 O 0.037096 0.640116 0.311432   -0.753553
 O 0.056412 0.812282 0.0627   -0.64282
 O 0.473348 0.629894 0.31583   -0.756693
 O 0.488392 0.804244 0.066926   -0.653644
 O 0.010936 0.854664 0.694144   -0.684167
 O 0.730944 0.04143 0.688184   -0.706612
 O 0.76091 0.764764 0.520854   -0.716522
 O 0.48112 0.806508 0.667208   -0.686852
 O 0.962884 0.359844 0.688604   -0.753699
 O 0.943668 0.187704 0.937348   -0.643023
 O 0.526592 0.369764 0.68432   -0.756947
 O 0.511652 0.196022 0.933368   -0.653505
