#{'_ref': 'TBD', '_srcid': 'CAKYAQ_clean', 'submitters': [{'name': 'Dalar Nazarian Jeff Camp and David Sholl', 'email': 'dalar@gatech.edu jcamp6@gatech.edu'}], '_method': 'VASP DFT with PBE;DDEC'}
data_Zn2H4C8O9
_symmetry_space_group_name_H-M   'P 1'
_cell_length_a   9.20750028
_cell_length_b   11.12850038
_cell_length_c   12.19100000
_cell_angle_alpha   85.61300091
_cell_angle_beta   89.85799718
_cell_angle_gamma   89.89100131
_symmetry_Int_Tables_number   1
_chemical_formula_structural   Zn2H4C8O9
_chemical_formula_sum   'Zn8 H16 C32 O36'
_cell_volume   1245.49345658
_cell_formula_units_Z   4
loop_
 _symmetry_equiv_pos_site_id
 _symmetry_equiv_pos_as_xyz
  1  'x, y, z'
loop_
 _atom_site_label
 _atom_site_fract_x
 _atom_site_fract_y
 _atom_site_fract_z
 _atom_site_charge
 Zn 0.187224 0.119748 0.22211   1.077456
 Zn 0.514308 0.239784 0.921207   1.052079
 Zn 0.687084 0.38011 0.276999   1.077669
 Zn 0.018572 0.26046 0.574137   1.054965
 Zn 0.813336 0.880008 0.777346   1.081422
 Zn 0.486674 0.760652 0.074505   1.055068
 Zn 0.31324 0.620488 0.718568   1.079068
 Zn 0.981198 0.73954 0.421871   1.052863
 H 0.33768 0.939532 0.910603   0.110261
 H 0.386794 0.067586 0.681215   0.12893
 H 0.085284 0.991006 0.898233   0.148717
 H 0.1456 0.233546 0.84822   0.122557
 H 0.84027 0.559088 0.587888   0.107533
 H 0.890052 0.430646 0.81609   0.128593
 H 0.58877 0.507642 0.599504   0.148607
 H 0.649136 0.266268 0.649964   0.122638
 H 0.662798 0.058466 0.089331   0.108933
 H 0.611412 0.930508 0.317044   0.128094
 H 0.91542 0.007444 0.102332   0.148671
 H 0.85514 0.767458 0.150906   0.122052
 H 0.160104 0.442332 0.408086   0.108475
 H 0.110592 0.5701 0.179571   0.128514
 H 0.411672 0.493908 0.396379   0.149358
 H 0.350724 0.735172 0.345039   0.12152
 C 0.245312 0.153954 0.995547   0.629721
 C 0.300944 0.96513 0.826322   -0.161007
 C 0.5605 0.037524 0.799838   0.634879
 C 0.401384 0.06198 0.770846   0.019848
 C 0.156032 0.036376 0.834737   -0.2249
 C 0.216312 0.156032 0.871176   0.048732
 C 0.292868 0.853402 0.760916   0.647695
 C 0.070244 0.059066 0.726886   0.726869
 C 0.747868 0.3457 0.502128   0.62848
 C 0.803022 0.534048 0.67226   -0.157976
 C 0.063202 0.461794 0.696546   0.62671
 C 0.90445 0.436816 0.726369   0.020169
 C 0.659142 0.463476 0.66286   -0.222237
 C 0.719722 0.343566 0.626467   0.048634
 C 0.794818 0.64633 0.736946   0.649683
 C 0.571158 0.440598 0.76979   0.720263
 C 0.757214 0.846176 0.002831   0.628854
 C 0.699872 0.034592 0.173854   -0.156265
 C 0.438972 0.961918 0.197529   0.618007
 C 0.59772 0.93731 0.227323   0.022801
 C 0.84336 0.964476 0.16441   -0.219937
 C 0.78417 0.844636 0.127315   0.048532
 C 0.70773 0.14805 0.23671   0.646453
 C 0.928592 0.941412 0.272418   0.715065
 C 0.25272 0.656294 0.493433   0.631149
 C 0.197444 0.467084 0.323688   -0.159294
 C 0.93719 0.538552 0.298859   0.624132
 C 0.095924 0.563948 0.269268   0.020537
 C 0.34122 0.537806 0.332936   -0.221875
 C 0.280428 0.657838 0.369014   0.048195
 C 0.205496 0.35456 0.259402   0.648632
 C 0.429068 0.56014 0.225859   0.720922
 O 0.351868 0.175824 0.810905   -0.314622
 O 0.12639 0.13884 0.656942   -0.609728
 O 0.369068 0.187044 0.029068   -0.566777
 O 0.142576 0.120124 0.059557   -0.557785
 O 0.332186 0.75288 0.815138   -0.62671
 O 0.62189 0.093064 0.874852   -0.59741
 O 0.950328 0.01069 0.712936   -0.596433
 O 0.251412 0.864198 0.664268   -0.547555
 O 0.620342 0.959476 0.747614   -0.551655
 O 0.85558 0.323514 0.68569   -0.314029
 O 0.625666 0.360062 0.839755   -0.602725
 O 0.87176 0.313476 0.467473   -0.565336
 O 0.643796 0.3791 0.439456   -0.5569
 O 0.830954 0.74685 0.681244   -0.62685
 O 0.125044 0.406824 0.620944   -0.588805
 O 0.450124 0.489642 0.782978   -0.599589
 O 0.756502 0.635848 0.834448   -0.548352
 O 0.120998 0.54141 0.750617   -0.551322
 O 0.647828 0.824248 0.18618   -0.315106
 O 0.871452 0.861708 0.341998   -0.600935
 O 0.634002 0.813072 0.968091   -0.566991
 O 0.861084 0.879356 0.939635   -0.554255
 O 0.668158 0.247334 0.180652   -0.623694
 O 0.37878 0.907356 0.121332   -0.580169
 O 0.050474 0.989656 0.287301   -0.599032
 O 0.749014 0.140004 0.333474   -0.546974
 O 0.38077 0.041888 0.254477   -0.553472
 O 0.144266 0.677322 0.310021   -0.314988
 O 0.374622 0.640592 0.155773   -0.604065
 O 0.128532 0.68743 0.528305   -0.566595
 O 0.35737 0.624396 0.556063   -0.557971
 O 0.168956 0.254484 0.315712   -0.62725
 O 0.875072 0.593346 0.374445   -0.587967
 O 0.54973 0.51057 0.212503   -0.597856
 O 0.243786 0.364342 0.161915   -0.546537
 O 0.879714 0.458854 0.244708   -0.54907
