#{'_ref': 'TBD', '_srcid': 'CAKYAQ_clean', 'submitters': [{'name': 'Dalar Nazarian Jeff Camp and David Sholl', 'email': 'dalar@gatech.edu jcamp6@gatech.edu'}], '_method': 'VASP DFT with PBE;DDEC'}
data_ZnH12(C9N5)2
_symmetry_space_group_name_H-M   'P 1'
_cell_length_a   6.60800033
_cell_length_b   17.29900000
_cell_length_c   18.38100005
_cell_angle_alpha   89.99799881
_cell_angle_beta   89.99599968
_cell_angle_gamma   81.78999605
_symmetry_Int_Tables_number   1
_chemical_formula_structural   ZnH12(C9N5)2
_chemical_formula_sum   'Zn4 H48 C72 N40'
_cell_volume   2079.63096876
_cell_formula_units_Z   4
loop_
 _symmetry_equiv_pos_site_id
 _symmetry_equiv_pos_as_xyz
  1  'x, y, z'
loop_
 _atom_site_label
 _atom_site_fract_x
 _atom_site_fract_y
 _atom_site_fract_z
 _atom_site_charge
 Zn 0.258598 0.699978 0.51829   0.643426
 Zn 0.739048 0.799921 0.018285   0.645617
 Zn 0.739068 0.299922 0.48173   0.645698
 Zn 0.258618 0.19998 0.981693   0.643354
 H 0.643426 0.774247 0.55721   0.082446
 H 0.750484 0.902275 0.553374   0.129066
 H 0.173968 0.988346 0.447998   0.131514
 H 0.0883 0.854286 0.456389   0.095908
 H 0.483904 0.602563 0.402566   0.070304
 H 0.81458 0.51777 0.388464   0.137207
 H 0.902682 0.540169 0.620913   0.146611
 H 0.566898 0.62252 0.625319   0.08188
 H 0.597878 0.842823 0.364241   0.098661
 H 0.685518 0.622921 0.251527   0.117631
 H 0.355116 0.659903 0.186928   0.102707
 H 0.26988 0.880858 0.29772   0.107622
 H 0.355762 0.725361 0.057358   0.083097
 H 0.249296 0.597247 0.053583   0.128963
 H 0.825782 0.511472 0.948025   0.1316
 H 0.910914 0.645653 0.956375   0.096031
 H 0.51605 0.897428 0.902656   0.070726
 H 0.185512 0.982397 0.888502   0.13695
 H 0.096938 0.960016 0.120949   0.146582
 H 0.43266 0.877504 0.125393   0.081932
 H 0.403024 0.657228 0.863995   0.098345
 H 0.315568 0.877128 0.751269   0.117479
 H 0.645918 0.840091 0.686636   0.102826
 H 0.730994 0.619145 0.79745   0.107657
 H 0.3558 0.225369 0.442652   0.083104
 H 0.24933 0.097253 0.44642   0.128857
 H 0.825766 0.011466 0.551974   0.131631
 H 0.9109 0.145648 0.543633   0.09586
 H 0.51603 0.397454 0.597357   0.070725
 H 0.18548 0.482423 0.611497   0.13692
 H 0.096994 0.459992 0.379057   0.146494
 H 0.432718 0.377483 0.374627   0.081866
 H 0.403096 0.157227 0.636007   0.09826
 H 0.315536 0.377124 0.748729   0.117524
 H 0.645864 0.340099 0.813362   0.102811
 H 0.731044 0.119157 0.702552   0.107697
 H 0.643464 0.274255 0.942776   0.082511
 H 0.750518 0.402282 0.94662   0.129011
 H 0.173954 0.48834 0.052001   0.131545
 H 0.08829 0.354281 0.043603   0.096
 H 0.483878 0.102585 0.097417   0.07025
 H 0.81454 0.017793 0.111533   0.137291
 H 0.902744 0.040149 0.879078   0.146556
 H 0.56696 0.1225 0.874658   0.081905
 H 0.59794 0.34282 0.135752   0.09855
 H 0.685474 0.122914 0.24847   0.117586
 H 0.355056 0.159911 0.313072   0.102711
 H 0.26993 0.38087 0.202278   0.107622
 C 0.5403 0.822811 0.534041   0.152666
 C 0.60061 0.896529 0.531309   -0.183317
 C 0.470844 0.95989 0.501408   0.115164
 C 0.282652 0.943477 0.473789   -0.192433
 C 0.232016 0.868507 0.478331   0.129407
 C 0.584628 0.588371 0.449084   0.142346
 C 0.77091 0.540619 0.442138   -0.171332
 C 0.897506 0.523606 0.503111   0.10252
 C 0.819302 0.552928 0.570381   -0.179701
 C 0.631116 0.599889 0.573682   0.130447
 C 0.854208 0.705647 0.351583   0.319811
 C 0.663272 0.730236 0.312476   0.003425
 C 0.543598 0.802737 0.325545   -0.104075
 C 0.593946 0.679494 0.26132   -0.104404
 C 0.103954 0.797306 0.195884   0.328978
 C 0.291762 0.773412 0.237089   -0.001171
 C 0.410584 0.700541 0.224699   -0.104521
 C 0.360812 0.824058 0.28837   -0.109988
 C 0.459 0.676852 0.034143   0.153389
 C 0.399034 0.603088 0.031449   -0.183511
 C 0.52892 0.539789 0.001499   0.115378
 C 0.717 0.556299 0.973835   -0.192463
 C 0.767326 0.631324 0.978344   0.129858
 C 0.415156 0.911671 0.949125   0.142773
 C 0.22908 0.959489 0.942162   -0.171041
 C 0.102484 0.976446 0.003136   0.103014
 C 0.180404 0.947184 0.070446   -0.179543
 C 0.368414 0.900165 0.073774   0.131408
 C 0.146912 0.794436 0.851383   0.327056
 C 0.337752 0.769819 0.812227   0.001343
 C 0.457342 0.697301 0.825289   -0.101659
 C 0.407088 0.820542 0.761054   -0.103318
 C 0.89703 0.702678 0.69561   0.325445
 C 0.709194 0.726585 0.736804   -0.000256
 C 0.590414 0.799464 0.724414   -0.105934
 C 0.6401 0.675952 0.788097   -0.110956
 C 0.459026 0.176857 0.465865   0.153536
 C 0.39906 0.103092 0.468554   -0.183555
 C 0.528934 0.03979 0.498502   0.115534
 C 0.716994 0.056296 0.526167   -0.19265
 C 0.76732 0.131321 0.521662   0.130216
 C 0.415148 0.411686 0.550887   0.142911
 C 0.229066 0.459505 0.557842   -0.171008
 C 0.102498 0.476447 0.496867   0.103058
 C 0.180444 0.447172 0.429562   -0.179312
 C 0.368454 0.400153 0.426243   0.131403
 C 0.146932 0.294429 0.648617   0.326892
 C 0.337768 0.269818 0.687772   0.001735
 C 0.457384 0.197304 0.674712   -0.101713
 C 0.407074 0.320542 0.738944   -0.103463
 C 0.89703 0.202692 0.804387   0.325299
 C 0.709198 0.226595 0.763196   4.4e-05
 C 0.59039 0.29947 0.775585   -0.105963
 C 0.640132 0.175961 0.711904   -0.111137
 C 0.54033 0.322816 0.965949   0.152656
 C 0.600638 0.396533 0.968685   -0.18323
 C 0.47086 0.459891 0.998589   0.115271
 C 0.282648 0.443475 0.026208   -0.192598
 C 0.232014 0.368505 0.021662   0.129273
 C 0.584618 0.088385 0.0509   0.142466
 C 0.770892 0.040632 0.057854   -0.171574
 C 0.89752 0.023607 0.996883   0.10275
 C 0.819342 0.052917 0.929608   -0.179696
 C 0.631158 0.099878 0.926299   0.130409
 C 0.854222 0.205639 0.148413   0.319829
 C 0.66328 0.230232 0.187521   0.00351
 C 0.543634 0.302737 0.17445   -0.103965
 C 0.593922 0.179491 0.238677   -0.104586
 C 0.103952 0.297321 0.304116   0.328866
 C 0.29176 0.273421 0.262907   -0.001091
 C 0.410554 0.200546 0.2753   -0.104232
 C 0.360842 0.324066 0.211626   -0.110136
 N 0.357462 0.808659 0.508927   -0.2768
 N 0.51569 0.619208 0.513704   -0.283996
 N 0.08906 0.69303 0.430074   -0.035893
 N 0.138576 0.636762 0.380112   -0.0898
 N 0.99219 0.643656 0.330474   -0.331753
 N 0.911882 0.737903 0.413738   -0.358452
 N 0.877986 0.806666 0.112993   -0.034341
 N 0.8194 0.86397 0.16126   -0.113729
 N 0.960108 0.858931 0.213711   -0.334756
 N 0.056882 0.763694 0.132996   -0.36188
 N 0.641656 0.691109 0.008948   -0.277335
 N 0.48364 0.880808 0.01377   -0.284076
 N 0.909488 0.806856 0.93015   -0.036621
 N 0.860402 0.86324 0.880267   -0.089157
 N 0.008694 0.856346 0.830251   -0.337466
 N 0.089614 0.76228 0.913643   -0.365698
 N 0.120828 0.693271 0.613149   -0.027063
 N 0.179796 0.636098 0.661508   -0.121814
 N 0.039284 0.641197 0.714036   -0.32777
 N 0.944472 0.736407 0.632821   -0.359271
 N 0.641672 0.191111 0.491061   -0.277523
 N 0.483664 0.380811 0.486248   -0.28426
 N 0.909516 0.306846 0.569856   -0.037156
 N 0.860412 0.363226 0.619739   -0.088838
 N 0.008698 0.356335 0.669751   -0.337618
 N 0.089652 0.262274 0.586359   -0.365439
 N 0.120824 0.193288 0.886839   -0.027274
 N 0.179796 0.136115 0.838482   -0.121849
 N 0.039294 0.141215 0.785958   -0.327666
 N 0.944466 0.23642 0.867173   -0.359045
 N 0.35748 0.308661 0.991061   -0.276792
 N 0.515712 0.11921 0.986274   -0.283968
 N 0.08909 0.19302 0.069918   -0.036183
 N 0.138586 0.136748 0.119879   -0.08958
 N 0.992194 0.143646 0.169521   -0.331791
 N 0.91191 0.237894 0.086255   -0.358392
 N 0.87798 0.306679 0.387015   -0.034232
 N 0.8194 0.363986 0.338749   -0.113709
 N 0.960112 0.358946 0.286291   -0.334634
 N 0.056872 0.263708 0.367007   -0.362059
