#{'_ref': 'TBD', '_srcid': 'CAKYAQ_clean', 'submitters': [{'name': 'Dalar Nazarian Jeff Camp and David Sholl', 'email': 'dalar@gatech.edu jcamp6@gatech.edu'}], '_method': 'VASP DFT with PBE;DDEC'}
data_KH5C6NO3
_symmetry_space_group_name_H-M   'P 1'
_cell_length_a   3.95550037
_cell_length_b   8.11650001
_cell_length_c   26.63932445
_cell_angle_alpha   90.00070855
_cell_angle_beta   93.20125666
_cell_angle_gamma   90.00199746
_symmetry_Int_Tables_number   1
_chemical_formula_structural   KH5C6NO3
_chemical_formula_sum   'K4 H20 C24 N4 O12'
_cell_volume   853.916098258
_cell_formula_units_Z   4
loop_
 _symmetry_equiv_pos_site_id
 _symmetry_equiv_pos_as_xyz
  1  'x, y, z'
loop_
 _atom_site_label
 _atom_site_fract_x
 _atom_site_fract_y
 _atom_site_fract_z
 _atom_site_charge
 K 0.83344 0.27344 0.77553   0.946333
 K 0.666117 0.77474 0.724349   0.946161
 K 0.16612 0.725254 0.224348   0.946136
 K 0.333462 0.226564 0.27552   0.946342
 H 0.296059 0.576318 0.821855   0.407473
 H 0.360003 0.457532 0.867619   0.410213
 H 0.082655 0.665176 0.617639   0.065742
 H 0.581787 0.196262 0.619259   0.091992
 H 0.711009 0.246492 0.528459   0.123931
 H 0.198137 0.076502 0.677823   0.406706
 H 0.132598 0.957346 0.632176   0.410829
 H 0.421956 0.164618 0.88241   0.066213
 H 0.914667 0.6978 0.880275   0.091877
 H 0.79271 0.745894 0.971608   0.124004
 H 0.698161 0.423492 0.177811   0.406634
 H 0.632613 0.542682 0.132165   0.410603
 H 0.921967 0.335332 0.382395   0.066286
 H 0.414792 0.802208 0.380296   0.091973
 H 0.292866 0.754148 0.47161   0.12397
 H 0.796085 0.923716 0.321855   0.407611
 H 0.860102 0.042502 0.367614   0.410025
 H 0.582607 0.834846 0.117631   0.06568
 H 0.081896 0.303714 0.11926   0.092047
 H 0.211077 0.253378 0.028451   0.123612
 C 0.462318 0.4828 0.526396   0.2341
 C 0.224412 0.570596 0.598662   0.171981
 C 0.320338 0.42764 0.625346   -0.209328
 C 0.497011 0.307938 0.599573   0.014336
 C 0.567701 0.334848 0.549723   -0.186159
 C 0.231229 0.405634 0.679247   0.70461
 C 0.037815 0.983216 0.973377   0.233989
 C 0.278195 0.070508 0.901267   0.17077
 C 0.180238 0.928098 0.874472   -0.209796
 C 0.001095 0.808954 0.900095   0.01545
 C 0.930297 0.835796 0.949935   -0.185826
 C 0.26958 0.905658 0.820608   0.704278
 C 0.53787 0.51675 0.473384   0.233931
 C 0.778239 0.429436 0.401259   0.170857
 C 0.680292 0.571904 0.374478   -0.210042
 C 0.501189 0.691042 0.400109   0.015683
 C 0.430394 0.664182 0.449948   -0.186107
 C 0.769605 0.594356 0.320613   0.704264
 C 0.962337 0.017186 0.026393   0.233715
 C 0.724402 0.929422 0.098656   0.171983
 C 0.820364 0.072348 0.125342   -0.209179
 C 0.997088 0.19204 0.099572   0.014257
 C 0.067774 0.16513 0.049722   -0.185663
 C 0.73124 0.094366 0.179242   0.704413
 N 0.292142 0.60001 0.55081   -0.403999
 N 0.210123 0.099912 0.949109   -0.402838
 N 0.710173 0.400008 0.449101   -0.40277
 N 0.792117 0.900006 0.050803   -0.40389
 O 0.287654 0.264376 0.69969   -0.721676
 O 0.108963 0.527444 0.701809   -0.745949
 O 0.356149 0.459166 0.831109   -0.903165
 O 0.207619 0.765004 0.800075   -0.721372
 O 0.397223 0.026404 0.798213   -0.74728
 O 0.137463 0.959294 0.668691   -0.903483
 O 0.707642 0.73501 0.300082   -0.721426
 O 0.89726 0.47359 0.298206   -0.747309
 O 0.637482 0.540728 0.16868   -0.90325
 O 0.787693 0.235628 0.199683   -0.721633
 O 0.608984 0.972588 0.201806   -0.745794
 O 0.856162 0.04085 0.331104   -0.903077
