#{'_ref': 'TBD', '_srcid': 'CAKYAQ_clean', 'submitters': [{'name': 'Dalar Nazarian Jeff Camp and David Sholl', 'email': 'dalar@gatech.edu jcamp6@gatech.edu'}], '_method': 'VASP DFT with PBE;DDEC'}
data_CaH4(C2O3)2
_symmetry_space_group_name_H-M   'P 1'
_cell_length_a   9.53450010
_cell_length_b   11.07950000
_cell_length_c   17.05900000
_cell_angle_alpha   90.00000000
_cell_angle_beta   90.00000000
_cell_angle_gamma   90.03800289
_symmetry_Int_Tables_number   1
_chemical_formula_structural   CaH4(C2O3)2
_chemical_formula_sum   'Ca8 H32 C32 O48'
_cell_volume   1802.06961081
_cell_formula_units_Z   8
loop_
 _symmetry_equiv_pos_site_id
 _symmetry_equiv_pos_as_xyz
  1  'x, y, z'
loop_
 _atom_site_label
 _atom_site_fract_x
 _atom_site_fract_y
 _atom_site_fract_z
 _atom_site_charge
 Ca 0.334 0.349222 0.61336   1.528126
 Ca 0.334 0.349222 0.113346   1.557298
 Ca 0.164786 0.649086 0.863342   1.533248
 Ca 0.164786 0.649086 0.363328   1.529588
 Ca 0.665232 0.850262 0.636602   1.530196
 Ca 0.665232 0.850262 0.136588   1.527566
 Ca 0.83415 0.150032 0.886642   1.496084
 Ca 0.83415 0.150032 0.386628   1.530875
 H 0.765194 0.336864 0.613093   0.098427
 H 0.765194 0.336864 0.113079   0.074815
 H 0.820932 0.136768 0.574157   0.09635
 H 0.820932 0.136768 0.074143   0.080705
 H 0.608596 0.284428 0.710701   0.402925
 H 0.608596 0.284428 0.210687   0.378951
 H 0.636862 0.041414 0.531628   0.366024
 H 0.636862 0.041414 0.031614   0.360353
 H 0.732304 0.662524 0.862097   0.095884
 H 0.732304 0.662524 0.362083   0.099715
 H 0.679216 0.862958 0.82446   0.096045
 H 0.679216 0.862958 0.324446   0.09678
 H 0.889066 0.712026 0.960534   0.41135
 H 0.889066 0.712026 0.46052   0.408475
 H 0.862928 0.957534 0.781663   0.363166
 H 0.862928 0.957534 0.281649   0.365203
 H 0.234222 0.835874 0.636877   0.09886
 H 0.234222 0.835874 0.136863   0.097339
 H 0.178756 0.635842 0.675647   0.094291
 H 0.178756 0.635842 0.175633   0.095108
 H 0.391126 0.783926 0.539251   0.412601
 H 0.391126 0.783926 0.039236   0.408967
 H 0.362164 0.540658 0.718393   0.36332
 H 0.362164 0.540658 0.218379   0.364943
 H 0.266956 0.162138 0.88773   0.097436
 H 0.266956 0.162138 0.387716   0.100407
 H 0.320124 0.362694 0.92568   0.094463
 H 0.320124 0.362694 0.425666   0.094104
 H 0.110202 0.21183 0.789369   0.413364
 H 0.110202 0.21183 0.289355   0.411451
 H 0.135658 0.456726 0.968273   0.366785
 H 0.135658 0.456726 0.468259   0.363469
 C 0.61993 0.302 0.519495   0.720656
 C 0.61993 0.302 0.019481   0.883256
 C 0.675156 0.276056 0.603027   0.047402
 C 0.675156 0.276056 0.103013   0.027705
 C 0.7265 0.146156 0.611256   0.013253
 C 0.7265 0.146156 0.111242   0.032221
 C 0.772818 0.110648 0.694021   0.716147
 C 0.772818 0.110648 0.194007   0.705893
 C 0.879266 0.69741 0.76926   0.719714
 C 0.879266 0.69741 0.269246   0.723719
 C 0.823422 0.722394 0.852761   0.046426
 C 0.823422 0.722394 0.352747   0.04696
 C 0.773798 0.852834 0.86137   0.014325
 C 0.773798 0.852834 0.361356   0.015459
 C 0.728234 0.888712 0.944204   0.703668
 C 0.728234 0.888712 0.44419   0.70085
 C 0.37956 0.801396 0.730485   0.724599
 C 0.37956 0.801396 0.230471   0.723417
 C 0.324416 0.77533 0.646911   0.045344
 C 0.324416 0.77533 0.146897   0.048446
 C 0.273274 0.645282 0.638609   0.016157
 C 0.273274 0.645282 0.138595   0.012051
 C 0.227076 0.609456 0.555842   0.702842
 C 0.227076 0.609456 0.055828   0.709199
 C 0.12009 0.196984 0.98061   0.7191
 C 0.12009 0.196984 0.480596   0.725988
 C 0.175948 0.221998 0.897128   0.047053
 C 0.175948 0.221998 0.397114   0.044779
 C 0.225714 0.35246 0.888633   0.014758
 C 0.225714 0.35246 0.388619   0.016524
 C 0.271618 0.388354 0.805877   0.698101
 C 0.271618 0.388354 0.305863   0.703788
 O 0.499384 0.348666 0.513483   -0.674081
 O 0.499384 0.348666 0.013469   -0.848514
 O 0.7005 0.275338 0.463043   -0.724229
 O 0.7005 0.275338 0.0   -0.588134
 O 0.566488 0.30245 0.659347   -0.623224
 O 0.566488 0.30245 0.159333   -0.66278
 O 0.621306 0.059356 0.589368   -0.614486
 O 0.621306 0.059356 0.089354   -0.617654
 O 0.771848 0.186002 0.750017   -0.698735
 O 0.771848 0.186002 0.250003   -0.680519
 O 0.806464 0.999984 0.700037   -0.657124
 O 0.806464 0.999984 0.200023   -0.671181
 O 0.999998 0.6511 0.763325   -0.674724
 O 0.999998 0.6511 0.263311   -0.675048
 O 0.799118 0.724744 0.712761   -0.728328
 O 0.799118 0.724744 0.212747   -0.729931
 O 0.931062 0.69354 0.909211   -0.625494
 O 0.931062 0.69354 0.409197   -0.625008
 O 0.879608 0.93891 0.83915   -0.606402
 O 0.879608 0.93891 0.339136   -0.613064
 O 0.728164 0.813258 0.500112   -0.677733
 O 0.728164 0.813258 9.80000000013e-05   -0.662411
 O 0.691038 0.000332 0.949759   -0.674491
 O 0.691038 0.000332 0.449745   -0.663444
 O 0.499946 0.84856 0.736479   -0.679976
 O 0.499946 0.84856 0.236465   -0.674451
 O 0.299094 0.774432 0.786938   -0.731314
 O 0.299094 0.774432 0.286924   -0.731562
 O 0.433038 0.80226 0.590619   -0.625816
 O 0.433038 0.80226 0.090605   -0.626626
 O 0.378336 0.558568 0.660714   -0.613606
 O 0.378336 0.558568 0.1607   -0.608491
 O 0.228362 0.684546 0.999728   -0.687418
 O 0.228362 0.684546 0.499714   -0.678198
 O 0.19067 0.498516 0.550216   -0.660875
 O 0.19067 0.498516 0.050202   -0.663728
 O 0.999148 0.151002 0.986608   -0.672564
 O 0.999148 0.151002 0.486594   -0.679076
 O 0.20048 0.22407 0.037062   -0.717239
 O 0.20048 0.22407 0.537048   -0.736271
 O 0.068194 0.193366 0.840691   -0.628769
 O 0.068194 0.193366 0.340677   -0.623456
 O 0.119776 0.4384 0.910643   -0.621752
 O 0.119776 0.4384 0.410629   -0.612329
 O 0.271732 0.312952 0.74994   -0.679315
 O 0.271732 0.312952 0.249926   -0.679042
 O 0.306486 0.499694 0.800095   -0.662344
 O 0.306486 0.499694 0.300081   -0.6639
