#{'_ref': 'TBD', '_srcid': 'CAKYAQ_clean', 'submitters': [{'name': 'Dalar Nazarian Jeff Camp and David Sholl', 'email': 'dalar@gatech.edu jcamp6@gatech.edu'}], '_method': 'VASP DFT with PBE;DDEC'}
data_AgH5(C2N)2
_symmetry_space_group_name_H-M   'P 1'
_cell_length_a   10.96149951
_cell_length_b   12.75800000
_cell_length_c   20.06599952
_cell_angle_alpha   90.03500108
_cell_angle_beta   90.04699934
_cell_angle_gamma   90.12600221
_symmetry_Int_Tables_number   1
_chemical_formula_structural   AgH5(C2N)2
_chemical_formula_sum   'Ag16 H80 C64 N32'
_cell_volume   2806.15777956
_cell_formula_units_Z   16
loop_
 _symmetry_equiv_pos_site_id
 _symmetry_equiv_pos_as_xyz
  1  'x, y, z'
loop_
 _atom_site_label
 _atom_site_fract_x
 _atom_site_fract_y
 _atom_site_fract_z
 _atom_site_charge
 Ag 0.145446 0.328613 0.53507   0.301639
 Ag 0.854008 0.328853 0.964999   0.301626
 Ag 0.64528 0.171118 0.965043   0.301586
 Ag 0.353976 0.171334 0.534905   0.301309
 Ag 0.249528 0.750186 0.675123   0.325219
 Ag 0.749474 0.749888 0.825124   0.325475
 Ag 0.000382000000002 0.18793 0.249795   0.300702
 Ag 0.500402 0.311945 0.250047   0.300839
 Ag 0.854328 0.671346 0.464893   0.301717
 Ag 0.145872 0.671224 0.034924   0.301906
 Ag 0.35454 0.828976 0.034977   0.302013
 Ag 0.645794 0.828613 0.465113   0.301332
 Ag 0.750182 0.249752 0.324882   0.325445
 Ag 0.250272 0.250189 0.174851   0.325229
 Ag 0.999612 0.812101 0.750139   0.300706
 Ag 0.499404 0.688095 0.749976   0.300699
 H 0.188152 0.336191 0.69862   0.107075
 H 0.234962 0.52377 0.763535   0.10707
 H 0.1398 0.661924 0.539242   0.131511
 H 0.295872 0.628271 0.527787   0.135809
 H 0.179232 0.542559 0.498688   0.12346
 H 0.010796 0.019479 0.372765   0.11709
 H 0.06802 0.080521 0.501964   0.113365
 H 0.067706 0.383081 0.317129   0.132034
 H 0.056148 0.43052 0.399938   0.137451
 H 0.200416 0.390156 0.368618   0.136604
 H 0.810062 0.336019 0.801657   0.106501
 H 0.763062 0.523325 0.736775   0.107219
 H 0.859932 0.662155 0.96092   0.131574
 H 0.703796 0.62836 0.972573   0.135855
 H 0.820248 0.542839 0.001537   0.123459
 H 0.989286 0.019549 0.126485   0.117494
 H 0.931206 0.080877 0.99755   0.113484
 H 0.93436 0.383314 0.182659   0.132082
 H 0.94441 0.430733 0.099814   0.136979
 H 0.800718 0.389924 0.131911   0.136978
 H 0.687682 0.163519 0.801558   0.107117
 H 0.734874 0.976147 0.736746   0.107416
 H 0.63962 0.838141 0.961168   0.131396
 H 0.796036 0.871557 0.972375   0.135981
 H 0.680246 0.95748 0.00162   0.123489
 H 0.51091 0.48031 0.126903   0.11706
 H 0.568008 0.419045 0.997839   0.114021
 H 0.567386 0.116871 0.182898   0.132257
 H 0.5562 0.069268 0.100095   0.137271
 H 0.700316 0.110241 0.131711   0.136833
 H 0.310306 0.164328 0.698227   0.106473
 H 0.26362 0.976995 0.763276   0.107212
 H 0.35957 0.837782 0.53937   0.131636
 H 0.203616 0.871526 0.527449   0.135732
 H 0.320544 0.956991 0.498569   0.123489
 H 0.48933 0.480584 0.373126   0.11709
 H 0.431296 0.419503 0.502121   0.113446
 H 0.434602 0.116386 0.317466   0.13213
 H 0.44372 0.069388 0.400446   0.136995
 H 0.300464 0.10985 0.367751   0.13675
 H 0.81149 0.663737 0.301354   0.10705
 H 0.764674 0.476138 0.236462   0.106724
 H 0.85997 0.338142 0.460791   0.131584
 H 0.703828 0.371603 0.472206   0.136276
 H 0.820302 0.457474 0.501316   0.123827
 H 0.989248 0.980643 0.62715   0.117254
 H 0.931828 0.919442 0.497995   0.113495
 H 0.932336 0.616821 0.682793   0.132099
 H 0.943914 0.569418 0.599977   0.137289
 H 0.799624 0.609712 0.631307   0.136632
 H 0.189942 0.66409 0.198246   0.106641
 H 0.23674 0.476774 0.263157   0.107092
 H 0.139956 0.337814 0.039076   0.131131
 H 0.296018 0.37177 0.027319   0.13567
 H 0.179378 0.45715 0.0   0.125143
 H 0.010852 0.980411 0.87343   0.117273
 H 0.06848 0.919168 0.002413   0.113776
 H 0.065684 0.616825 0.817253   0.13248
 H 0.055774 0.569376 0.900095   0.137595
 H 0.19939 0.610312 0.86796   0.137152
 H 0.312234 0.83658 0.198477   0.106974
 H 0.264956 0.023954 0.26327   0.107076
 H 0.360096 0.161839 0.038781   0.13134
 H 0.203618 0.128543 0.027678   0.135787
 H 0.319252 0.042517 0.0   0.12543
 H 0.488766 0.519764 0.873115   0.117133
 H 0.431716 0.581062 0.002181   0.113757
 H 0.432682 0.883278 0.817153   0.132095
 H 0.443692 0.930821 0.899976   0.137742
 H 0.299632 0.889921 0.86825   0.136644
 H 0.689606 0.835584 0.301811   0.106413
 H 0.736284 0.022904 0.236743   0.107444
 H 0.6401 0.162306 0.460535   0.13149
 H 0.79594 0.128348 0.472641   0.135978
 H 0.678736 0.043062 0.501405   0.123654
 H 0.51052 0.519384 0.626933   0.117307
 H 0.56849 0.580429 0.497922   0.113709
 H 0.565396 0.883559 0.682573   0.13229
 H 0.55605 0.930578 0.599607   0.136943
 H 0.699406 0.890134 0.632187   0.136885
 C 0.205272 0.540129 0.604068   0.407264
 C 0.198866 0.414671 0.678799   -0.066794
 C 0.221274 0.507841 0.711042   -0.060962
 C 0.204804 0.59641 0.539084   -0.45649
 C 0.078372 0.263991 0.391477   0.418427
 C 0.037688 0.09528 0.392235   -0.050429
 C 0.064388 0.125854 0.45634   -0.072176
 C 0.101994 0.372691 0.36806   -0.45649
 C 0.793742 0.540139 0.896188   0.408002
 C 0.799572 0.414526 0.821468   -0.065496
 C 0.77707 0.507552 0.789246   -0.062263
 C 0.794694 0.596566 0.961164   -0.456875
 C 0.922198 0.264138 0.108296   0.41835
 C 0.962314 0.095506 0.107216   -0.052074
 C 0.935264 0.126142 0.043208   -0.071522
 C 0.899128 0.37277 0.131913   -0.456397
 C 0.705468 0.959788 0.89621   0.407902
 C 0.698614 0.085119 0.821416   -0.06682
 C 0.721194 0.992052 0.789222   -0.061731
 C 0.70511 0.903549 0.961209   -0.457013
 C 0.578304 0.235886 0.108493   0.418787
 C 0.537802 0.404453 0.107544   -0.050652
 C 0.564432 0.373817 0.043485   -0.072799
 C 0.601894 0.12733 0.132036   -0.457209
 C 0.293862 0.959939 0.603875   0.407892
 C 0.299794 0.085734 0.678483   -0.065135
 C 0.277432 0.992697 0.710788   -0.061843
 C 0.294654 0.903355 0.538957   -0.456551
 C 0.422128 0.235891 0.391564   0.417811
 C 0.462424 0.40466 0.392481   -0.051012
 C 0.435326 0.374114 0.456498   -0.072335
 C 0.398934 0.127123 0.368061   -0.456065
 C 0.79434 0.45983 0.395933   0.407777
 C 0.800754 0.585266 0.321186   -0.066842
 C 0.778342 0.492088 0.288955   -0.059871
 C 0.79485 0.403573 0.460924   -0.457559
 C 0.921632 0.735927 0.608459   0.419214
 C 0.962238 0.90465 0.607715   -0.051488
 C 0.935506 0.874092 0.543612   -0.071656
 C 0.898036 0.627217 0.631865   -0.456693
 C 0.206078 0.459927 0.103743   0.406541
 C 0.200388 0.585573 0.178445   -0.066031
 C 0.22278 0.49254 0.210681   -0.06147
 C 0.205096 0.403472 0.038777   -0.456097
 C 0.077752 0.735979 0.891627   0.418405
 C 0.037542 0.904594 0.892728   -0.050754
 C 0.064518 0.873933 0.95674   -0.072765
 C 0.100962 0.627383 0.867988   -0.457188
 C 0.294244 0.040268 0.103797   0.406592
 C 0.301232 0.914967 0.178609   -0.066414
 C 0.278602 0.008034 0.210793   -0.061589
 C 0.29453 0.096485 0.03879   -0.456975
 C 0.421558 0.764228 0.891526   0.418502
 C 0.461946 0.595639 0.892477   -0.050186
 C 0.43534 0.62629 0.956535   -0.072643
 C 0.398046 0.872797 0.867987   -0.456673
 C 0.705822 0.040022 0.396129   0.407264
 C 0.700044 0.914191 0.321543   -0.064785
 C 0.722418 0.007219 0.28923   -0.062717
 C 0.704884 0.096639 0.461035   -0.456641
 C 0.577694 0.764074 0.608456   0.418197
 C 0.537432 0.5953 0.607567   -0.051153
 C 0.564492 0.625828 0.543542   -0.072787
 C 0.60094 0.872841 0.63195   -0.45626
 N 0.224726 0.586845 0.663803   -0.373147
 N 0.188794 0.435211 0.611158   -0.381812
 N 0.089292 0.23248 0.455662   -0.378221
 N 0.046614 0.182699 0.351432   -0.385288
 N 0.773932 0.586651 0.83648   -0.372975
 N 0.810118 0.435265 0.889082   -0.382278
 N 0.910752 0.232734 0.044085   -0.378905
 N 0.954018 0.182849 0.148162   -0.384246
 N 0.724946 0.913127 0.8365   -0.373241
 N 0.688686 0.064591 0.889061   -0.381857
 N 0.589192 0.267264 0.044281   -0.378005
 N 0.546668 0.317167 0.148445   -0.385567
 N 0.274292 0.913473 0.663626   -0.372938
 N 0.310166 0.064895 0.610887   -0.382837
 N 0.410732 0.267439 0.455728   -0.377581
 N 0.454022 0.317171 0.351635   -0.384579
 N 0.774862 0.4131 0.336205   -0.373771
 N 0.810818 0.564745 0.38883   -0.38229
 N 0.910634 0.76746 0.544282   -0.378518
 N 0.953354 0.817219 0.648511   -0.385157
 N 0.225826 0.413421 0.163458   -0.373599
 N 0.189838 0.564821 0.110832   -0.382372
 N 0.089102 0.767352 0.955848   -0.378298
 N 0.045958 0.817281 0.851765   -0.384951
 N 0.274776 0.086939 0.163503   -0.373469
 N 0.311108 0.935477 0.11096   -0.382388
 N 0.410638 0.732854 0.955736   -0.378155
 N 0.45312 0.682926 0.851574   -0.385398
 N 0.725458 0.086466 0.336377   -0.372511
 N 0.689566 0.93506 0.38913   -0.38246
 N 0.589076 0.732502 0.544295   -0.377733
 N 0.545848 0.682801 0.648401   -0.384617
