#{'_ref': 'TBD', '_srcid': 'CAKYAQ_clean', 'submitters': [{'name': 'Dalar Nazarian Jeff Camp and David Sholl', 'email': 'dalar@gatech.edu jcamp6@gatech.edu'}], '_method': 'VASP DFT with PBE;DDEC'}
data_CaPH9C7O9
_symmetry_space_group_name_H-M   'P 1'
_cell_length_a   7.81600043
_cell_length_b   10.68100008
_cell_length_c   17.95500000
_cell_angle_alpha   89.93899750
_cell_angle_beta   89.76199753
_cell_angle_gamma   89.99600237
_symmetry_Int_Tables_number   1
_chemical_formula_structural   CaPH9C7O9
_chemical_formula_sum   'Ca4 P4 H36 C28 O36'
_cell_volume   1498.91811559
_cell_formula_units_Z   4
loop_
 _symmetry_equiv_pos_site_id
 _symmetry_equiv_pos_as_xyz
  1  'x, y, z'
loop_
 _atom_site_label
 _atom_site_fract_x
 _atom_site_fract_y
 _atom_site_fract_z
 _atom_site_charge
 Ca 0.309718 0.235994 0.854444   1.620817
 Ca 0.193484 0.735728 0.645498   1.6201
 Ca 0.689942 0.764114 0.145949   1.619628
 Ca 0.806306 0.263204 0.354408   1.620123
 P 0.15746 0.42913 0.706847   1.461104
 P 0.345778 0.9294 0.792841   1.457673
 P 0.84254 0.569654 0.293037   1.460477
 P 0.653818 0.069594 0.207097   1.465334
 H 0.90161 0.383376 0.812976   0.151432
 H 0.779866 0.449806 0.741858   0.151619
 H 0.009542 0.300098 0.582637   0.08484
 H 0.823034 0.225672 0.614536   0.088237
 H 0.662764 0.42056 0.620944   0.160993
 H 0.848988 0.512966 0.616108   0.13743
 H 0.570838 0.122958 0.757896   0.397632
 H 0.268592 0.43676 0.568933   0.405021
 H 0.150694 0.037136 0.693079   0.405211
 H 0.602262 0.883846 0.686988   0.15219
 H 0.723772 0.949698 0.758284   0.152495
 H 0.493056 0.798622 0.91709   0.085693
 H 0.681016 0.726132 0.885295   0.089316
 H 0.8383 0.922168 0.879923   0.162136
 H 0.652576 0.014558 0.883546   0.13844
 H 0.932562 0.622722 0.741917   0.397294
 H 0.235242 0.93763 0.930922   0.406364
 H 0.353266 0.536818 0.806647   0.406043
 H 0.09934 0.616564 0.187236   0.151859
 H 0.221828 0.550746 0.258315   0.151924
 H 0.99007 0.698624 0.417639   0.084876
 H 0.176872 0.772932 0.385918   0.08856
 H 0.336444 0.577638 0.379083   0.161161
 H 0.149876 0.485644 0.383895   0.138289
 H 0.42862 0.878304 0.242238   0.398464
 H 0.73131 0.561108 0.431013   0.40519
 H 0.849758 0.962348 0.307006   0.406311
 H 0.396726 0.115454 0.312958   0.151909
 H 0.27439 0.050032 0.241785   0.151341
 H 0.506324 0.199158 0.082712   0.085152
 H 0.318948 0.27259 0.114395   0.087224
 H 0.160386 0.076884 0.120473   0.160253
 H 0.34927 0.986874 0.116438   0.137499
 H 0.067786 0.377608 0.258003   0.397591
 H 0.76835 0.062898 0.068874   0.404328
 H 0.646946 0.461548 0.193145   0.406157
 C 0.691302 0.27643 0.779198   0.750635
 C 0.838476 0.361526 0.760032   -0.335006
 C 0.96923 0.31615 0.701388   -0.325736
 C 0.899986 0.310898 0.620506   -0.039906
 C 0.793064 0.424536 0.596979   -0.39452
 C 0.77001 0.435358 0.513814   0.793135
 C 0.042526 0.190958 0.725545   0.694342
 C 0.812372 0.776634 0.720795   0.750839
 C 0.665084 0.8616 0.739976   -0.335294
 C 0.533882 0.816128 0.798474   -0.327304
 C 0.602652 0.810722 0.879386   -0.04059
 C 0.707322 0.925196 0.903209   -0.393654
 C 0.727742 0.936438 0.986439   0.785977
 C 0.460748 0.691048 0.774277   0.695473
 C 0.308408 0.724768 0.221031   0.751732
 C 0.162138 0.63869 0.240215   -0.3344
 C 0.030658 0.683038 0.298862   -0.326942
 C 0.09966 0.687846 0.379784   -0.040074
 C 0.206214 0.573866 0.403128   -0.395226
 C 0.229638 0.562606 0.486256   0.79315
 C 0.957134 0.808118 0.274725   0.695104
 C 0.187752 0.22387 0.279128   0.749911
 C 0.334032 0.137874 0.259971   -0.333302
 C 0.465482 0.182604 0.201397   -0.329243
 C 0.396688 0.18772 0.120472   -0.039307
 C 0.291084 0.07352 0.096915   -0.395897
 C 0.26978 0.062216 0.01372   0.800323
 C 0.539052 0.3075 0.225535   0.695732
 O 0.592102 0.303826 0.831194   -0.652876
 O 0.674044 0.175732 0.737545   -0.499474
 O 0.778258 0.341646 0.471751   -0.724207
 O 0.741254 0.549216 0.490751   -0.531571
 O 0.065162 0.166324 0.792829   -0.658941
 O 0.088088 0.113846 0.671812   -0.479294
 O 0.238104 0.41223 0.784998   -0.932234
 O 0.074476 0.561268 0.700158   -0.941283
 O 0.280582 0.400366 0.64354   -0.78891
 O 0.911624 0.804512 0.668883   -0.65232
 O 0.829736 0.675622 0.762324   -0.498405
 O 0.718456 0.842848 0.028629   -0.716296
 O 0.761312 0.051374 0.009117   -0.532888
 O 0.438282 0.666786 0.706975   -0.658918
 O 0.41521 0.613582 0.82797   -0.479607
 O 0.265068 0.912458 0.714753   -0.928813
 O 0.429066 0.062524 0.799569   -0.940695
 O 0.222888 0.901176 0.856343   -0.788134
 O 0.407526 0.697962 0.168897   -0.654243
 O 0.325368 0.825568 0.262637   -0.499775
 O 0.221606 0.656166 0.528435   -0.725322
 O 0.258532 0.44868 0.509168   -0.530632
 O 0.934668 0.832442 0.207404   -0.660198
 O 0.911422 0.885422 0.328343   -0.48019
 O 0.761922 0.586722 0.214914   -0.931593
 O 0.925676 0.437562 0.299644   -0.93898
 O 0.719284 0.59767 0.356412   -0.789934
 O 0.08859 0.196848 0.331239   -0.654215
 O 0.170896 0.324824 0.237523   -0.498145
 O 0.281758 0.15538 0.971347   -0.732853
 O 0.244716 0.949562 0.990659   -0.529468
 O 0.561618 0.331574 0.292846   -0.66045
 O 0.584968 0.384828 0.171852   -0.480228
 O 0.734278 0.086206 0.285289   -0.933619
 O 0.571048 0.938534 0.200682   -0.939217
 O 0.776852 0.0986 0.143808   -0.791758
