#{'_ref': 'TBD', '_srcid': 'CAKYAQ_clean', 'submitters': [{'name': 'Dalar Nazarian Jeff Camp and David Sholl', 'email': 'dalar@gatech.edu jcamp6@gatech.edu'}], '_method': 'VASP DFT with PBE;DDEC'}
data_AgH4C6NO2
_symmetry_space_group_name_H-M   'P 1'
_cell_length_a   7.96199976
_cell_length_b   14.33200004
_cell_length_c   14.57100000
_cell_angle_alpha   89.46899901
_cell_angle_beta   85.67800104
_cell_angle_gamma   89.18499910
_symmetry_Int_Tables_number   1
_chemical_formula_structural   AgH4C6NO2
_chemical_formula_sum   'Ag8 H32 C48 N8 O16'
_cell_volume   1657.76487821
_cell_formula_units_Z   8
loop_
 _symmetry_equiv_pos_site_id
 _symmetry_equiv_pos_as_xyz
  1  'x, y, z'
loop_
 _atom_site_label
 _atom_site_fract_x
 _atom_site_fract_y
 _atom_site_fract_z
 _atom_site_charge
 Ag 0.764777 0.569467 0.434833   0.427605
 Ag 0.270128 0.577726 0.43884   0.421403
 Ag 0.726715 0.078092 0.061661   0.427238
 Ag 0.238878 0.068924 0.063051   0.433865
 Ag 0.735435 0.421502 0.561718   0.421989
 Ag 0.240963 0.429783 0.565712   0.423687
 Ag 0.76322 0.930358 0.936553   0.437375
 Ag 0.275599 0.921149 0.937975   0.427131
 H 0.799356 0.604562 0.220268   0.096459
 H 0.303871 0.610142 0.225294   0.09401
 H 0.908909 0.718214 0.098048   0.130905
 H 0.411421 0.722488 0.101352   0.130186
 H 0.101091 0.880996 0.311779   0.13131
 H 0.608008 0.887544 0.312089   0.131066
 H 0.988186 0.759631 0.426153   0.091715
 H 0.499076 0.766661 0.428094   0.0921
 H 0.702523 0.110738 0.274286   0.095688
 H 0.209141 0.102984 0.277772   0.093261
 H 0.593362 0.222091 0.398067   0.132265
 H 0.097106 0.215886 0.399601   0.125352
 H 0.381238 0.388783 0.188197   0.129028
 H 0.0 0.380457 0.185906   0.106821
 H 0.492219 0.268687 0.072357   0.091
 H 0.007118 0.259366 0.0721   0.0986
 H 0.698093 0.389733 0.775307   0.095611
 H 0.202586 0.395417 0.780309   0.09282
 H 0.588704 0.277624 0.899002   0.130237
 H 0.091346 0.281966 0.902294   0.125743
 H 0.394813 0.112384 0.687581   0.129339
 H 0.0 0.118947 0.687921   0.111965
 H 0.505641 0.232992 0.571795   0.090544
 H 0.016627 0.240045 0.573765   0.098357
 H 0.796419 0.896748 0.722041   0.0961
 H 0.3029 0.889036 0.725319   0.094437
 H 0.909949 0.784045 0.600409   0.133046
 H 0.413672 0.777887 0.601735   0.131328
 H 0.112548 0.619301 0.814663   0.130988
 H 0.623605 0.611077 0.812216   0.131545
 H 0.996163 0.740167 0.928303   0.092146
 H 0.510957 0.730934 0.927885   0.091841
 C 0.866512 0.66697 0.237797   0.111243
 C 0.37198 0.672591 0.241699   0.114358
 C 0.927558 0.729706 0.170286   -0.165352
 C 0.431861 0.734606 0.173273   -0.164625
 C 0.013426 0.808505 0.196123   0.02085
 C 0.518115 0.81374 0.197816   0.022601
 C 0.033236 0.820728 0.289804   -0.160833
 C 0.540179 0.826848 0.291131   -0.161297
 C 0.969976 0.754236 0.352955   0.110968
 C 0.478765 0.760755 0.355197   0.112621
 C 0.592796 0.88129 0.126286   0.604286
 C 0.09199 0.875792 0.125479   0.604867
 C 0.630551 0.173253 0.257984   0.11115
 C 0.138411 0.165528 0.260158   0.104945
 C 0.569784 0.234745 0.326368   -0.167247
 C 0.076092 0.227879 0.327464   -0.164612
 C 0.478754 0.314107 0.30206   0.022963
 C 0.0 0.30712 0.301498   0.011177
 C 0.452804 0.327908 0.209   -0.157814
 C 0.0 0.319891 0.207973   -0.107573
 C 0.515346 0.262237 0.144993   0.111876
 C 0.027795 0.253636 0.145096   0.099201
 C 0.908136 0.37471 0.371898   0.599788
 C 0.403559 0.38115 0.373808   0.605449
 C 0.630157 0.327294 0.758688   0.111954
 C 0.135675 0.332995 0.762579   0.111462
 C 0.569216 0.26541 0.826981   -0.164163
 C 0.073657 0.270381 0.829961   -0.163921
 C 0.483211 0.186269 0.802196   0.022061
 C 0.0 0.19156 0.803892   0.013352
 C 0.462406 0.173076 0.708757   -0.156742
 C 0.0 0.179224 0.710101   -0.114747
 C 0.524887 0.239015 0.644809   0.11287
 C 0.033781 0.245568 0.647068   0.100586
 C 0.908797 0.124334 0.874385   0.598894
 C 0.407684 0.118773 0.873563   0.604687
 C 0.867006 0.834214 0.73983   0.113695
 C 0.374754 0.826539 0.741807   0.11391
 C 0.930173 0.771967 0.67263   -0.168447
 C 0.436476 0.765171 0.673526   -0.165464
 C 0.019775 0.692739 0.698789   0.018956
 C 0.527298 0.685801 0.698042   0.022235
 C 0.041729 0.679872 0.792422   -0.161052
 C 0.552231 0.671947 0.791218   -0.162217
 C 0.976378 0.746007 0.855208   0.110937
 C 0.48874 0.737478 0.855138   0.111655
 C 0.603399 0.618878 0.626398   0.605019
 C 0.098704 0.625218 0.628508   0.606476
 N 0.887284 0.678089 0.328104   -0.287377
 N 0.395066 0.684482 0.331671   -0.290481
 N 0.603748 0.185776 0.16828   -0.289102
 N 0.114885 0.177295 0.170004   -0.293741
 N 0.608392 0.315281 0.668571   -0.290859
 N 0.116227 0.32173 0.67214   -0.295651
 N 0.889458 0.822353 0.830107   -0.290586
 N 0.400482 0.813932 0.831646   -0.290248
 O 0.652379 0.955536 0.156259   -0.543671
 O 0.156188 0.948383 0.156472   -0.542879
 O 0.592721 0.855971 0.042517   -0.572126
 O 0.091102 0.851817 0.041473   -0.569627
 O 0.843606 0.448676 0.340639   -0.541361
 O 0.341014 0.456284 0.344001   -0.543604
 O 0.910518 0.349647 0.456004   -0.560893
 O 0.406919 0.354623 0.457489   -0.565577
 O 0.844057 0.051961 0.843338   -0.543714
 O 0.347936 0.044617 0.843546   -0.546685
 O 0.909869 0.148169 0.958441   -0.564011
 O 0.407578 0.144049 0.957372   -0.569778
 O 0.666048 0.543795 0.656208   -0.542315
 O 0.163372 0.551318 0.659774   -0.541621
 O 0.600177 0.6454 0.542689   -0.565442
 O 0.096657 0.650347 0.544391   -0.565745
