#{'_ref': 'TBD', '_srcid': 'CAKYAQ_clean', 'submitters': [{'name': 'Dalar Nazarian Jeff Camp and David Sholl', 'email': 'dalar@gatech.edu jcamp6@gatech.edu'}], '_method': 'VASP DFT with PBE;DDEC'}
data_CdH2C7O6
_symmetry_space_group_name_H-M   'P 1'
_cell_length_a   6.90199973
_cell_length_b   7.89600000
_cell_length_c   10.09300014
_cell_angle_alpha   93.85099756
_cell_angle_beta   109.48500455
_cell_angle_gamma   105.52799776
_symmetry_Int_Tables_number   1
_chemical_formula_structural   CdH2C7O6
_chemical_formula_sum   'Cd2 H4 C14 O12'
_cell_volume   492.153258807
_cell_formula_units_Z   2
loop_
 _symmetry_equiv_pos_site_id
 _symmetry_equiv_pos_as_xyz
  1  'x, y, z'
loop_
 _atom_site_label
 _atom_site_fract_x
 _atom_site_fract_y
 _atom_site_fract_z
 _atom_site_charge
 Cd 0.480504 0.02006 0.035956   1.088874
 Cd 0.480496 0.020066 0.535941   1.139275
 H 0.445174 0.60202 0.798172   0.189629
 H 0.44518 0.602018 0.298187   0.192438
 H 0.941358 0.4931 0.479886   0.192569
 H 0.941364 0.493098 0.0   0.195259
 C 0.231744 0.339526 0.754754   0.203919
 C 0.23175 0.339524 0.254768   0.188165
 C 0.332802 0.255448 0.667357   0.523579
 C 0.332808 0.255444 0.167371   0.526457
 C 0.307074 0.515368 0.815492   -0.292087
 C 0.307076 0.515366 0.315504   -0.322136
 C 0.206874 0.58256 0.90257   0.461667
 C 0.20688 0.582556 0.402585   0.536538
 C 0.026566 0.453006 0.916389   -0.273134
 C 0.026562 0.453008 0.416395   -0.309478
 C 0.96237 0.2803 0.852035   0.173054
 C 0.962368 0.2803 0.352043   0.174718
 C 0.775142 0.138766 0.86381   0.625451
 C 0.775148 0.138766 0.363822   0.623317
 O 0.061194 0.221498 0.771421   -0.085804
 O 0.061198 0.221496 0.271433   -0.097803
 O 0.232906 0.091484 0.608258   -0.572161
 O 0.232916 0.091478 0.108278   -0.565217
 O 0.506644 0.348452 0.66126   -0.545528
 O 0.506642 0.348452 0.161267   -0.548744
 O 0.266202 0.741582 0.467171   -0.551981
 O 0.266218 0.74158 0.0   -0.538563
 O 0.672852 0.001504 0.76936   -0.596122
 O 0.672848 0.001506 0.26937   -0.583328
 O 0.737742 0.17814 0.975609   -0.570272
 O 0.73775 0.17814 0.475622   -0.582549
