#{'_ref': 'TBD', '_srcid': 'CAKYAQ_clean', 'submitters': [{'name': 'Dalar Nazarian Jeff Camp and David Sholl', 'email': 'dalar@gatech.edu jcamp6@gatech.edu'}], '_method': 'VASP DFT with PBE;DDEC'}
data_LaH5C14(NO4)2
_symmetry_space_group_name_H-M   'P 1'
_cell_length_a   12.18999982
_cell_length_b   12.32800000
_cell_length_c   14.11700024
_cell_angle_alpha   89.88400002
_cell_angle_beta   68.56099931
_cell_angle_gamma   89.96100220
_symmetry_Int_Tables_number   1
_chemical_formula_structural   LaH5C14(NO4)2
_chemical_formula_sum   'La4 H20 C56 N8 O32'
_cell_volume   1974.68398948
_cell_formula_units_Z   4
loop_
 _symmetry_equiv_pos_site_id
 _symmetry_equiv_pos_as_xyz
  1  'x, y, z'
loop_
 _atom_site_label
 _atom_site_fract_x
 _atom_site_fract_y
 _atom_site_fract_z
 _atom_site_charge
 La 0.424695 0.579779 0.893405   2.082633
 La 0.574731 0.080099 0.606407   2.089505
 La 0.57532 0.420163 0.106568   2.085901
 La 0.42528 0.919836 0.39358   2.091195
 H 0.352271 0.770873 0.734273   0.39045
 H 0.768853 0.868865 0.622213   0.12719
 H 0.916611 0.658389 0.793278   0.147509
 H 0.941121 0.850853 0.495611   0.157923
 H 0.066177 0.750113 0.734872   0.148844
 H 0.64718 0.267788 0.76813   0.394725
 H 0.231002 0.366905 0.879749   0.135547
 H 0.083519 0.159711 0.706778   0.150281
 H 0.0589 0.351243 0.005038   0.140427
 H 0.932904 0.246954 0.767631   0.140539
 H 0.647727 0.229099 0.265736   0.392814
 H 0.231159 0.131103 0.377775   0.133213
 H 0.083406 0.341534 0.206671   0.152023
 H 0.058901 0.149037 0.504354   0.140638
 H 0.933827 0.249881 0.265133   0.140539
 H 0.352827 0.732154 0.231867   0.378584
 H 0.769021 0.633055 0.120216   0.135345
 H 0.916492 0.840264 0.293183   0.148463
 H 0.941121 0.648708 0.99494   0.162898
 H 0.067114 0.753033 0.23234   0.145837
 C 0.539194 0.808798 0.730518   0.704912
 C 0.704514 0.582212 0.919644   0.615534
 C 0.163387 0.907032 0.358901   0.619686
 C 0.298969 0.792609 0.619691   0.614047
 C 0.651514 0.768493 0.739614   0.120625
 C 0.762444 0.807613 0.67948   -0.119711
 C 0.862763 0.765704 0.693549   0.076481
 C 0.844506 0.692714 0.774467   -0.166524
 C 0.730285 0.658453 0.830956   0.160125
 C 0.126201 0.859383 0.465808   0.146898
 C 0.009355 0.836605 0.527142   -0.1473
 C 0.0 0.795925 0.626052   0.129949
 C 0.078256 0.781169 0.659537   -0.145073
 C 0.191632 0.804954 0.593229   0.163682
 C 0.46074 0.307949 0.770547   0.701569
 C 0.295375 0.085377 0.57927   0.617814
 C 0.836872 0.406952 0.141627   0.624488
 C 0.700212 0.288893 0.882986   0.627562
 C 0.348399 0.268214 0.761208   0.126632
 C 0.237402 0.30659 0.821902   -0.121811
 C 0.137073 0.265168 0.80759   0.106531
 C 0.155501 0.193501 0.72595   -0.16313
 C 0.26977 0.160028 0.668833   0.163954
 C 0.87368 0.358157 0.035426   0.165446
 C 0.990533 0.335734 0.973986   -0.142246
 C 0.01584 0.294514 0.875449   0.107238
 C 0.921147 0.278485 0.84263   -0.135176
 C 0.807753 0.301793 0.909101   0.131846
 C 0.460814 0.191127 0.269455   0.70823
 C 0.295484 0.417769 0.080366   0.613104
 C 0.836614 0.092917 0.641097   0.620928
 C 0.70106 0.207324 0.380287   0.625165
 C 0.348499 0.231434 0.260347   0.122114
 C 0.237564 0.192322 0.320483   -0.122045
 C 0.137246 0.234238 0.306417   0.108167
 C 0.155502 0.307287 0.225543   -0.165323
 C 0.26973 0.3415 0.169029   0.165965
 C 0.873825 0.140498 0.534159   0.168812
 C 0.990665 0.163326 0.472837   -0.142681
 C 0.016129 0.204035 0.37394   0.105125
 C 0.921756 0.218805 0.340459   -0.136995
 C 0.808387 0.194999 0.406753   0.131639
 C 0.539281 0.692012 0.229426   0.710577
 C 0.704637 0.914558 0.420724   0.615799
 C 0.16314 0.593011 0.858348   0.62228
 C 0.299805 0.711051 0.117004   0.52669
 C 0.651619 0.731747 0.238761   0.122569
 C 0.762615 0.69339 0.178047   -0.120566
 C 0.862939 0.734783 0.192385   0.099493
 C 0.844509 0.806409 0.274053   -0.158805
 C 0.730244 0.839897 0.331167   0.169982
 C 0.126335 0.641808 0.96455   0.102415
 C 0.009487 0.664225 0.0   -0.071948
 C 0.0 0.705451 0.12453   0.037764
 C 0.078868 0.721452 0.157358   -0.146356
 C 0.192269 0.69814 0.090879   0.170918
 N 0.635475 0.690977 0.811041   -0.42045
 N 0.215287 0.842325 0.498412   -0.453004
 N 0.364566 0.191928 0.688938   -0.445365
 N 0.784341 0.339912 0.003479   -0.442412
 N 0.364544 0.308954 0.188924   -0.443619
 N 0.784741 0.157551 0.501549   -0.441388
 N 0.63545 0.808019 0.311046   -0.447191
 N 0.21568 0.660037 0.996503   -0.328192
 O 0.448912 0.746797 0.771234   -0.64331
 O 0.536538 0.897439 0.687275   -0.676382
 O 0.606395 0.528729 0.943145   -0.757749
 O 0.772581 0.574435 0.967032   -0.556006
 O 0.273585 0.935384 0.321333   -0.729032
 O 0.089559 0.915683 0.317836   -0.560866
 O 0.398872 0.795757 0.551236   -0.591686
 O 0.276636 0.781887 0.71681   -0.458532
 O 0.551015 0.246148 0.729324   -0.671333
 O 0.463287 0.395945 0.814514   -0.664325
 O 0.393925 0.032304 0.554677   -0.758713
 O 0.226591 0.078479 0.532606   -0.548332
 O 0.72676 0.435674 0.179034   -0.723622
 O 0.91111 0.416426 0.182135   -0.56156
 O 0.600383 0.292231 0.951494   -0.591662
 O 0.722546 0.277706 0.785944   -0.463209
 O 0.551068 0.253174 0.228797   -0.663606
 O 0.463485 0.102489 0.312698   -0.668908
 O 0.393629 0.471212 0.056827   -0.770264
 O 0.227434 0.425505 0.032959   -0.547701
 O 0.726403 0.064594 0.678681   -0.716429
 O 0.91044 0.08427 0.682159   -0.558331
 O 0.601158 0.204203 0.44875   -0.591725
 O 0.72338 0.218083 0.283174   -0.465843
 O 0.44899 0.753791 0.270671   -0.672131
 O 0.536743 0.604002 0.185475   -0.670806
 O 0.606101 0.967643 0.445281   -0.758205
 O 0.773432 0.921496 0.467378   -0.544519
 O 0.273259 0.564304 0.820923   -0.731962
 O 0.088906 0.583566 0.817833   -0.564567
 O 0.399635 0.707705 0.0   -0.681696
 O 0.277464 0.72225 0.214047   -0.295452
