#{'_ref': 'TBD', '_srcid': 'CAKYAQ_clean', 'submitters': [{'name': 'Dalar Nazarian Jeff Camp and David Sholl', 'email': 'dalar@gatech.edu jcamp6@gatech.edu'}], '_method': 'VASP DFT with PBE;DDEC'}
data_CuH4C6N5
_symmetry_space_group_name_H-M   'P 1'
_cell_length_a   5.72299984
_cell_length_b   10.56400044
_cell_length_c   16.26500000
_cell_angle_alpha   89.97000161
_cell_angle_beta   89.96900441
_cell_angle_gamma   87.55500016
_symmetry_Int_Tables_number   1
_chemical_formula_structural   CuH4C6N5
_chemical_formula_sum   'Cu4 H16 C24 N20'
_cell_volume   982.450202278
_cell_formula_units_Z   4
loop_
 _symmetry_equiv_pos_site_id
 _symmetry_equiv_pos_as_xyz
  1  'x, y, z'
loop_
 _atom_site_label
 _atom_site_fract_x
 _atom_site_fract_y
 _atom_site_fract_z
 _atom_site_charge
 Cu 0.248404 0.494942 0.569327   0.221313
 Cu 0.751408 0.0052 0.069253   0.221091
 Cu 0.751628 0.50505 0.430728   0.221262
 Cu 0.248614 0.994796 0.930804   0.22076
 H 0.2552 0.214672 0.649006   0.133885
 H 0.091866 0.08357 0.761046   0.086655
 H 0.779666 0.330262 0.820822   0.137448
 H 0.591164 0.19731 0.926888   0.075462
 H 0.743492 0.28667 0.148514   0.134094
 H 0.90698 0.41731 0.260614   0.086531
 H 0.218612 0.170834 0.320368   0.138005
 H 0.40742 0.30322 0.426507   0.07555
 H 0.74482 0.785348 0.351071   0.13379
 H 0.90815 0.916454 0.239031   0.086671
 H 0.220392 0.669732 0.179248   0.137517
 H 0.408894 0.802684 0.073183   0.07587
 H 0.256542 0.713296 0.851562   0.134324
 H 0.093056 0.582658 0.739459   0.086405
 H 0.781414 0.829142 0.67971   0.137909
 H 0.592608 0.69676 0.573568   0.075391
 C 0.653188 0.352126 0.661428   0.289195
 C 0.533472 0.283132 0.725455   0.069278
 C 0.335194 0.213428 0.709635   -0.18447
 C 0.243042 0.14072 0.772   0.114371
 C 0.625622 0.27798 0.805619   -0.19317
 C 0.52182 0.203958 0.864511   0.114645
 C 0.345898 0.148766 0.161083   0.289147
 C 0.465266 0.217938 0.225025   0.069015
 C 0.66347 0.287736 0.209169   -0.184698
 C 0.75576 0.360156 0.271575   0.114836
 C 0.372834 0.223044 0.30518   -0.194391
 C 0.476824 0.296748 0.364112   0.116
 C 0.346854 0.647874 0.338641   0.288657
 C 0.46657 0.716874 0.274617   0.069523
 C 0.664834 0.786586 0.29044   -0.184005
 C 0.756986 0.859296 0.228075   0.114272
 C 0.37443 0.72202 0.194452   -0.193626
 C 0.47823 0.796042 0.13556   0.114283
 C 0.654128 0.851212 0.83899   0.288983
 C 0.53476 0.782034 0.77505   0.068937
 C 0.336562 0.712234 0.790907   -0.184733
 C 0.244274 0.639816 0.728499   0.114874
 C 0.627194 0.77693 0.694895   -0.193767
 C 0.523204 0.70323 0.635962   0.11565
 N 0.563146 0.391682 0.587983   -0.264856
 N 0.745776 0.439958 0.547237   -0.02509
 N 0.93651 0.430258 0.595724   0.006882
 N 0.881578 0.37702 0.667621   -0.332337
 N 0.334026 0.133894 0.848715   -0.249124
 N 0.436556 0.108464 0.087888   -0.264055
 N 0.254124 0.059936 0.047253   -0.02595
 N 0.062858 0.0704 0.095494   0.008188
 N 0.117324 0.12419 0.167202   -0.333007
 N 0.664924 0.366656 0.348349   -0.250236
 N 0.436892 0.608312 0.412085   -0.264454
 N 0.254262 0.56003 0.452827   -0.025286
 N 0.063528 0.569732 0.404339   0.007012
 N 0.118466 0.622978 0.332445   -0.332285
 N 0.666014 0.866112 0.151358   -0.249151
 N 0.563466 0.891528 0.912182   -0.263604
 N 0.745898 0.940062 0.952813   -0.026758
 N 0.937168 0.92959 0.904572   0.008415
 N 0.882702 0.875788 0.832869   -0.332919
 N 0.335104 0.63332 0.651724   -0.250125
