#{'_ref': 'TBD', '_srcid': 'CAKYAQ_clean', 'submitters': [{'name': 'Dalar Nazarian Jeff Camp and David Sholl', 'email': 'dalar@gatech.edu jcamp6@gatech.edu'}], '_method': 'VASP DFT with PBE;DDEC'}
data_InH40C24NO8
_symmetry_space_group_name_H-M   'P 1'
_cell_length_a   12.70721420
_cell_length_b   12.77799995
_cell_length_c   18.44600000
_cell_angle_alpha   90.22999981
_cell_angle_beta   90.02785158
_cell_angle_gamma   60.28184803
_symmetry_Int_Tables_number   1
_chemical_formula_structural   InH40C24NO8
_chemical_formula_sum   'In3 H120 C72 N3 O24'
_cell_volume   2601.16774522
_cell_formula_units_Z   3
loop_
 _symmetry_equiv_pos_site_id
 _symmetry_equiv_pos_as_xyz
  1  'x, y, z'
loop_
 _atom_site_label
 _atom_site_fract_x
 _atom_site_fract_y
 _atom_site_fract_z
 _atom_site_charge
 In 0.999396 0.630489 0.499872   1.470254
 In 0.369879 0.999926 0.166052   1.471225
 In 0.630228 0.369265 0.833846   1.470697
 H 0.39547 0.998682 0.428462   0.087594
 H 0.521314 0.114134 0.352929   0.086351
 H 0.431734 0.161098 0.432169   0.079196
 H 0.6174 0.076715 0.497762   0.071705
 H 0.701164 0.004176 0.419108   0.072319
 H 0.59929 0.950609 0.590088   0.102137
 H 0.570663 0.832747 0.565262   0.122034
 H 0.467527 0.984912 0.539777   0.110385
 H 0.509336 0.746254 0.37935   0.117385
 H 0.476589 0.797999 0.470464   0.096895
 H 0.625498 0.683332 0.44653   0.130385
 H 0.633752 0.794767 0.2991   0.135354
 H 0.754415 0.730357 0.362415   0.120963
 H 0.700725 0.879579 0.329864   0.118284
 H 0.605704 0.397126 0.096769   0.087704
 H 0.365656 0.517226 0.02017   0.087396
 H 0.407328 0.430747 0.10015   0.07953
 H 0.304528 0.617692 0.163968   0.07122
 H 0.295083 0.698668 0.084746   0.072236
 H 0.447271 0.603748 0.25701   0.102133
 H 0.59402 0.57616 0.232876   0.122012
 H 0.545231 0.471659 0.207702   0.11087
 H 0.744537 0.511594 0.047814   0.117505
 H 0.724169 0.481534 0.139091   0.09655
 H 0.690362 0.629388 0.114039   0.129925
 H 0.573216 0.632058 0.96647   0.138674
 H 0.515904 0.75369 0.029116   0.120074
 H 0.421158 0.69763 0.0   0.120043
 H 0.0 0.605366 0.762432   0.088274
 H 0.11523 0.367894 0.685727   0.086248
 H 0.161928 0.410561 0.765161   0.079384
 H 0.078225 0.307903 0.83008   0.071651
 H 0.00499 0.297185 0.7515   0.072588
 H 0.952007 0.450253 0.923611   0.102806
 H 0.83293 0.595573 0.899953   0.122188
 H 0.985611 0.547993 0.873615   0.11062
 H 0.744238 0.743439 0.714977   0.117253
 H 0.796406 0.724295 0.80591   0.097393
 H 0.68151 0.689412 0.781934   0.130241
 H 0.792945 0.571858 0.63383   0.134786
 H 0.729169 0.514868 0.697195   0.120624
 H 0.879065 0.421044 0.663574   0.11885
 H 0.604745 0.395255 0.571563   0.088439
 H 0.482489 0.632922 0.648535   0.086005
 H 0.571653 0.590837 0.569124   0.078999
 H 0.385584 0.692975 0.504135   0.071659
 H 0.30181 0.703438 0.582677   0.071944
 H 0.400887 0.551102 0.410462   0.10274
 H 0.427415 0.405474 0.433913   0.121694
 H 0.532403 0.453477 0.460188   0.110855
 H 0.487584 0.256641 0.618615   0.117198
 H 0.520164 0.276389 0.52771   0.09742
 H 0.370738 0.310645 0.551762   0.130004
 H 0.364941 0.42772 0.700058   0.13448
 H 0.244152 0.484679 0.636757   0.120484
 H 0.300172 0.578713 0.670578   0.11885
 H 0.393367 0.000770000000003 0.903655   0.087298
 H 0.634267 0.884888 0.979329   0.086488
 H 0.591567 0.838239 0.899897   0.079585
 H 0.693403 0.922665 0.834728   0.071623
 H 0.704908 0.994763 0.913603   0.071473
 H 0.550274 0.04935 0.742364   0.101742
 H 0.404094 0.167264 0.767024   0.122083
 H 0.45231 0.015042 0.792155   0.110277
 H 0.255688 0.253081 0.95264   0.117557
 H 0.274917 0.201329 0.861499   0.097213
 H 0.309459 0.315958 0.8857   0.130521
 H 0.428168 0.204491 0.033308   0.135692
 H 0.484731 0.268976 0.970216   0.121075
 H 0.579802 0.119751 0.00278   0.118358
 H 0.003327 0.601874 0.237257   0.087679
 H 0.884453 0.479869 0.313272   0.086723
 H 0.83899 0.567439 0.233724   0.07903
 H 0.923094 0.381444 0.168891   0.071883
 H 0.995021 0.299459 0.247732   0.07266
 H 0.051169 0.397382 0.076176   0.102208
 H 0.170053 0.425319 0.100711   0.122003
 H 0.017023 0.528933 0.126224   0.110418
 H 0.256569 0.487693 0.286366   0.117584
 H 0.205944 0.518706 0.195149   0.09699
 H 0.319968 0.370722 0.219632   0.129999
 H 0.205759 0.366011 0.366966   0.134978
 H 0.270114 0.24502 0.303849   0.120604
 H 0.119557 0.30024 0.336532   0.118056
 H 0.21169 0.827318 0.252881   0.162059
 H 0.060159 0.870789 0.226591   0.128582
 H 0.136396 0.748309 0.288729   0.159437
 H 0.925291 0.996123 0.404211   0.132381
 H 0.969936 0.84741 0.371134   0.175057
 H 0.893267 0.97535 0.312289   0.137531
 H 0.173914 0.787254 0.412627   0.162228
 H 0.129762 0.937718 0.440109   0.129198
 H 0.252224 0.863351 0.376871   0.159449
 H 0.000779000000001 0.074042 0.264014   0.133744
 H 0.150753 0.029901 0.295828   0.175546
 H 0.02299 0.104749 0.355948   0.136999
 H 0.961007 0.211966 0.920567   0.161057
 H 0.066809 0.061398 0.893197   0.131666
 H 0.11529 0.135883 0.956276   0.158869
 H 0.074056 0.925944 0.069485   0.104246
 H 0.179996 0.969574 0.037507   0.157234
 H 0.126739 0.894567 0.0   0.143513
 H 0.038985 0.172349 0.080253   0.162022
 H 0.930951 0.128841 0.106747   0.129276
 H 0.884769 0.251172 0.044486   0.161993
 H 0.920773 0.002935 0.929345   0.134595
 H 0.817129 0.151797 0.962192   0.175168
 H 0.868075 0.024143 0.021258   0.135596
 H 0.825644 0.961564 0.58675   0.161263
 H 0.870331 0.068284 0.560355   0.129509
 H 0.747638 0.114818 0.623313   0.16018
 H 0.99876 0.076429 0.737257   0.132416
 H 0.84911 0.180554 0.70532   0.175229
 H 0.977264 0.129208 0.645614   0.137266
 H 0.787585 0.038098 0.746861   0.161199
 H 0.938957 0.931925 0.773135   0.129121
 H 0.862935 0.884847 0.710256   0.160322
 H 0.074567 0.924623 0.596137   0.132658
 H 0.02953 0.819937 0.628097   0.175284
 H 0.106199 0.871779 0.687758   0.137759
 C 0.635274 0.899831 0.476164   0.008763
 C 0.581653 0.861692 0.40974   0.234091
 C 0.467869 0.9859 0.390661   -0.215688
 C 0.505163 0.082381 0.404648   -0.121101
 C 0.621499 0.021109 0.451102   -0.170036
 C 0.563552 0.917442 0.546842   -0.355051
 C 0.546205 0.766617 0.427903   -0.415039
 C 0.673185 0.81434 0.346677   -0.423805
 C 0.766408 0.802755 0.489947   0.60321
 C 0.419048 0.986092 0.315368   0.665599
 C 0.463942 0.636673 0.142981   0.00907
 C 0.556602 0.582467 0.077193   0.231107
 C 0.546489 0.467837 0.058579   -0.214047
 C 0.412774 0.50354 0.072071   -0.12397
 C 0.356972 0.620819 0.11753   -0.16757
 C 0.516752 0.567584 0.214196   -0.354825
 C 0.686655 0.549313 0.095968   -0.415345
 C 0.513472 0.671873 0.013612   -0.425427
 C 0.4298 0.767776 0.156107   0.602756
 C 0.595767 0.418188 0.983568   0.665647
 C 0.900111 0.465414 0.809977   0.009383
 C 0.860955 0.556987 0.74412   0.233471
 C 0.985436 0.547777 0.724526   -0.213968
 C 0.083038 0.415162 0.737719   -0.123654
 C 0.022003 0.359388 0.783915   -0.169417
 C 0.918094 0.518989 0.880827   -0.356217
 C 0.765031 0.686228 0.763171   -0.41507
 C 0.81328 0.512891 0.68107   -0.424031
 C 0.802986 0.430669 0.824031   0.603632
 C 0.984946 0.596388 0.649356   0.665545
 C 0.364953 0.535205 0.524116   0.007918
 C 0.417647 0.443354 0.589821   0.235257
 C 0.532712 0.453 0.609506   -0.215466
 C 0.497557 0.585799 0.596475   -0.122127
 C 0.380869 0.641362 0.550271   -0.168538
 C 0.436006 0.482158 0.453125   -0.35534
 C 0.450992 0.314059 0.570524   -0.415322
 C 0.326188 0.486877 0.652916   -0.424111
 C 0.233216 0.569659 0.510131   0.603613
 C 0.580909 0.404429 0.68469   0.664964
 C 0.535141 0.099576 0.856425   0.007976
 C 0.443197 0.137599 0.922609   0.234431
 C 0.45313 0.013398 0.941492   -0.214631
 C 0.586583 0.916825 0.927571   -0.122043
 C 0.642071 0.978119 0.881415   -0.169188
 C 0.481255 0.082434 0.785454   -0.354437
 C 0.313067 0.232692 0.904211   -0.415742
 C 0.487256 0.184956 0.985852   -0.424453
 C 0.569633 0.196655 0.843337   0.603006
 C 0.404704 0.013306 0.016789   0.664804
 C 0.101215 0.362965 0.190077   0.008431
 C 0.139678 0.416611 0.256315   0.23347
 C 0.015096 0.53075 0.275249   -0.214291
 C 0.917405 0.494527 0.26148   -0.122527
 C 0.978759 0.37791 0.215407   -0.169245
 C 0.084497 0.433209 0.119276   -0.355241
 C 0.236329 0.450404 0.23797   -0.414509
 C 0.185958 0.32651 0.319529   -0.42324
 C 0.198167 0.232157 0.176258   0.602758
 C 0.014495 0.580356 0.350402   0.665727
 C 0.126208 0.83456 0.270785   -0.33762
 C 0.957693 0.935941 0.357074   -0.348931
 C 0.165936 0.872707 0.395312   -0.338276
 C 0.062136 0.041391 0.310535   -0.349431
 C 0.038258 0.126529 0.937929   -0.338366
 C 0.102798 0.958072 0.02289   -0.301977
 C 0.960703 0.165011 0.062459   -0.343662
 C 0.893174 0.06335 0.976372   -0.348009
 C 0.833862 0.038947 0.604734   -0.33874
 C 0.937697 0.104502 0.690578   -0.347859
 C 0.873089 0.960999 0.728813   -0.33798
 C 0.041894 0.896244 0.642837   -0.348864
 N 0.077284 0.921887 0.333429   0.402776
 N 0.998756 0.077512 0.999915   0.399746
 N 0.922353 0.000183999999997 0.666743   0.402655
 O 0.853904 0.824665 0.477885   -0.614566
 O 0.788935 0.700019 0.512161   -0.565175
 O 0.457289 0.024393 0.262283   -0.600136
 O 0.345381 0.947985 0.305961   -0.628429
 O 0.320655 0.853612 0.143757   -0.617366
 O 0.509927 0.791831 0.178199   -0.564112
 O 0.51963 0.455095 0.930252   -0.600369
 O 0.707312 0.345541 0.974578   -0.62909
 O 0.825488 0.321736 0.8118   -0.615572
 O 0.699497 0.509944 0.8466   -0.564346
 O 0.022657 0.520436 0.595909   -0.599843
 O 0.947047 0.70732 0.640371   -0.628498
 O 0.146968 0.678544 0.522251   -0.61501
 O 0.208992 0.490158 0.487636   -0.564263
 O 0.542745 0.480291 0.738151   -0.598657
 O 0.654041 0.293558 0.693737   -0.629009
 O 0.678831 0.174761 0.855858   -0.615456
 O 0.489716 0.2996 0.821357   -0.56446
 O 0.481316 0.975439 0.069812   -0.599789
 O 0.293138 0.051157 0.026345   -0.627642
 O 0.17526 0.145836 0.188575   -0.613893
 O 0.301753 0.208748 0.153654   -0.564562
 O 0.975215 0.543302 0.403625   -0.600143
 O 0.05305 0.653464 0.359586   -0.629158
