#{'_ref': 'TBD', '_srcid': 'CAKYAQ_clean', 'submitters': [{'name': 'Dalar Nazarian Jeff Camp and David Sholl', 'email': 'dalar@gatech.edu jcamp6@gatech.edu'}], '_method': 'VASP DFT with PBE;DDEC'}
data_ZnNi(CN)4
_symmetry_space_group_name_H-M   'P 1'
_cell_length_a   7.45750016
_cell_length_b   7.49149980
_cell_length_c   13.05000000
_cell_angle_alpha   88.59500167
_cell_angle_beta   89.96800041
_cell_angle_gamma   88.30199785
_symmetry_Int_Tables_number   1
_chemical_formula_structural   ZnNi(CN)4
_chemical_formula_sum   'Zn2 Ni2 C8 N8'
_cell_volume   728.536336743
_cell_formula_units_Z   2
loop_
 _symmetry_equiv_pos_site_id
 _symmetry_equiv_pos_as_xyz
  1  'x, y, z'
loop_
 _atom_site_label
 _atom_site_fract_x
 _atom_site_fract_y
 _atom_site_fract_z
 _atom_site_charge
 Zn 0.99953 0.014688 0.750801   0.967812
 Zn 0.000523999999999 0.985312 0.249225   0.967733
 Ni 0.996208 0.49999 0.002112   0.04626
 Ni 0.499464 0.00385 0.499957   0.049216
 C 0.996934 0.679552 0.903721   0.161471
 C 0.99394 0.331288 0.902441   0.170953
 C 0.3254 0.001312 0.599089   0.166101
 C 0.675342 0.006678 0.598742   0.164166
 C 0.003108 0.32035 0.096317   0.163198
 C 0.00616 0.668588 0.097674   0.172252
 C 0.674668 0.998786 0.400901   0.16494
 C 0.324708 0.993524 0.401309   0.163874
 N 0.998122 0.795366 0.842021   -0.417808
 N 0.993446 0.22207 0.839954   -0.421253
 N 0.212306 0.003774 0.661203   -0.420011
 N 0.787822 0.014198 0.660758   -0.417359
 N 0.002068 0.204512 0.158004   -0.421468
 N 0.006746 0.777776 0.160178   -0.4251
 N 0.78774 0.996306 0.338774   -0.418069
 N 0.21216 0.986058 0.339328   -0.41691
