#{'_ref': 'TBD', '_srcid': 'CAKYAQ_clean', 'submitters': [{'name': 'Dalar Nazarian Jeff Camp and David Sholl', 'email': 'dalar@gatech.edu jcamp6@gatech.edu'}], '_method': 'VASP DFT with PBE;DDEC'}
data_CdH12C18(NO)4
_symmetry_space_group_name_H-M   'P 1'
_cell_length_a   11.73600034
_cell_length_b   14.22900000
_cell_length_c   14.35000016
_cell_angle_alpha   76.73299954
_cell_angle_beta   89.87799992
_cell_angle_gamma   65.67500162
_symmetry_Int_Tables_number   1
_chemical_formula_structural   CdH12C18(NO)4
_chemical_formula_sum   'Cd4 H48 C72 N16 O16'
_cell_volume   2113.74842499
_cell_formula_units_Z   4
loop_
 _symmetry_equiv_pos_site_id
 _symmetry_equiv_pos_as_xyz
  1  'x, y, z'
loop_
 _atom_site_label
 _atom_site_fract_x
 _atom_site_fract_y
 _atom_site_fract_z
 _atom_site_charge
 Cd 0.90289 0.537359 0.374068   0.9637
 Cd 0.439868 0.462541 0.125888   0.964391
 Cd 0.097124 0.46259 0.625886   0.96386
 Cd 0.560154 0.53741 0.874059   0.964363
 H 0.801558 0.602896 0.790511   0.118701
 H 0.975828 0.636334 0.856751   0.094322
 H 0.082878 0.659233 0.385101   0.09438
 H 0.077464 0.835218 0.383068   0.127994
 H 0.671434 0.960457 0.359095   0.138553
 H 0.694788 0.778687 0.356972   0.084386
 H 0.134982 0.121692 0.366493   0.129157
 H 0.109948 0.303862 0.368435   0.088662
 H 0.728912 0.401664 0.399188   0.066537
 H 0.734828 0.230294 0.392002   0.138104
 H 0.760248 0.080622 0.36822   0.13569
 H 0.049192 0.0 0.37958   0.103577
 H 0.403218 0.397242 0.70917   0.119397
 H 0.611292 0.363543 0.643011   0.094259
 H 0.74145 0.340889 0.114814   0.094634
 H 0.912324 0.16505 0.117139   0.127066
 H 0.632052 0.039005 0.140712   0.138707
 H 0.473224 0.220727 0.142427   0.084272
 H 0.256616 0.878445 0.133204   0.129985
 H 0.413428 0.696202 0.131282   0.088663
 H 0.130146 0.598418 0.101079   0.066928
 H 0.964956 0.769847 0.108309   0.138992
 H 0.841086 0.919201 0.132025   0.133727
 H 0.042824 0.006607 0.120248   0.101881
 H 0.198472 0.397046 0.209441   0.11847
 H 0.024216 0.363586 0.14321   0.09419
 H 0.91716 0.340717 0.614858   0.09424
 H 0.922572 0.164731 0.616891   0.126802
 H 0.328586 0.039492 0.640849   0.138705
 H 0.305228 0.221262 0.642974   0.084336
 H 0.865048 0.878267 0.633453   0.129785
 H 0.890076 0.696098 0.631514   0.08899
 H 0.271108 0.598275 0.600781   0.0668
 H 0.265192 0.769647 0.60796   0.138786
 H 0.239772 0.919325 0.631727   0.134105
 H 0.950842 0.006329 0.620367   0.102278
 H 0.596818 0.602699 0.290781   0.119565
 H 0.388744 0.636387 0.356934   0.094257
 H 0.258574 0.659061 0.885139   0.094198
 H 0.087698 0.834901 0.882813   0.12938
 H 0.367972 0.960947 0.859228   0.138691
 H 0.526798 0.779223 0.857515   0.084347
 H 0.743404 0.121503 0.866741   0.13007
 H 0.58659 0.303745 0.868667   0.08845
 H 0.86987 0.401532 0.898873   0.066673
 H 0.035066 0.230105 0.891632   0.138541
 H 0.158936 0.080751 0.867917   0.133037
 H 0.9572 0.0 0.879697   0.103951
 C 0.824834 0.623147 0.048642   0.127561
 C 0.731478 0.59785 0.013637   0.040114
 C 0.808906 0.6077 0.864897   0.051105
 C 0.903632 0.628378 0.901789   0.090682
 C 0.83643 0.636056 0.150239   0.621625
 C 0.635742 0.577684 0.07637   0.595636
 C 0.9936 0.728633 0.378076   0.14999
 C 0.989304 0.82763 0.377352   -0.216609
 C 0.87242 0.915072 0.371459   0.159125
 C 0.764724 0.895817 0.364358   -0.226306
 C 0.77719 0.794537 0.363966   0.161546
 C 0.93731 0.158265 0.378724   0.147173
 C 0.042566 0.182232 0.372569   -0.230943
 C 0.029878 0.283227 0.374556   0.150859
 C 0.817528 0.338755 0.390365   0.156483
 C 0.821896 0.240587 0.387398   -0.208303
 C 0.85742 0.021645 0.372514   -0.131408
 C 0.952064 0.051835 0.37716   -0.113173
 C 0.448076 0.376862 0.451141   0.127197
 C 0.32926 0.402151 0.486116   0.041226
 C 0.415752 0.392372 0.634803   0.050806
 C 0.531358 0.371589 0.597949   0.090291
 C 0.472954 0.364145 0.349521   0.622491
 C 0.213842 0.421975 0.423409   0.592877
 C 0.721718 0.271356 0.121835   0.15054
 C 0.81661 0.172444 0.122728   -0.216498
 C 0.787424 0.084824 0.128584   0.158121
 C 0.660506 0.103808 0.135505   -0.225971
 C 0.571498 0.205045 0.135681   0.161866
 C 0.095532 0.841844 0.12131   0.153258
 C 0.22465 0.817884 0.127306   -0.232641
 C 0.312774 0.71686 0.125295   0.151636
 C 0.15595 0.661324 0.109804   0.156625
 C 0.062318 0.759502 0.112827   -0.210791
 C 0.879176 0.978319 0.127613   -0.13175
 C 0.003962 0.948295 0.122841   -0.114921
 C 0.175184 0.376802 0.951309   0.127423
 C 0.268544 0.402095 0.986314   0.040739
 C 0.191124 0.39224 0.135057   0.051522
 C 0.0964 0.371557 0.098166   0.090537
 C 0.163584 0.363894 0.849713   0.622001
 C 0.364274 0.42227 0.923576   0.595065
 C 0.006438 0.271317 0.621878   0.150693
 C 0.010732 0.172321 0.622601   -0.21707
 C 0.127598 0.084877 0.628485   0.158635
 C 0.235294 0.104131 0.635586   -0.225779
 C 0.222826 0.205412 0.63598   0.161782
 C 0.062708 0.841682 0.621228   0.152457
 C 0.957462 0.817726 0.627376   -0.231459
 C 0.970146 0.716731 0.62539   0.150241
 C 0.182492 0.661188 0.609596   0.15689
 C 0.178124 0.759357 0.61256   -0.209675
 C 0.1426 0.978304 0.627426   -0.131891
 C 0.047956 0.948111 0.622794   -0.115666
 C 0.551942 0.623081 0.548809   0.127739
 C 0.670756 0.597802 0.513835   0.041227
 C 0.584278 0.607571 0.365147   0.050366
 C 0.468668 0.628348 0.401998   0.090632
 C 0.527062 0.635796 0.65043   0.622013
 C 0.786168 0.577988 0.576545   0.592957
 C 0.278304 0.728595 0.878114   0.150544
 C 0.183412 0.827507 0.877221   -0.217021
 C 0.2126 0.915127 0.871361   0.158777
 C 0.339516 0.896144 0.864438   -0.225329
 C 0.428524 0.794906 0.864262   0.161032
 C 0.904488 0.158106 0.878635   0.146807
 C 0.77537 0.182065 0.872641   -0.231742
 C 0.687244 0.283087 0.874654   0.151521
 C 0.844068 0.338624 0.890148   0.1569
 C 0.9377 0.240448 0.887122   -0.211433
 C 0.120846 0.021633 0.87233   -0.135543
 C 0.996058 0.051656 0.877104   -0.10621
 N 0.911796 0.637146 0.992331   -0.319641
 N 0.723968 0.591444 0.921581   -0.28069
 N 0.889588 0.710983 0.371951   -0.325383
 N 0.918922 0.361214 0.384041   -0.334998
 N 0.548756 0.36282 0.507407   -0.318271
 N 0.31487 0.40859 0.578131   -0.281416
 N 0.600134 0.28877 0.127738   -0.32594
 N 0.27974 0.638869 0.115897   -0.3345
 N 0.088236 0.362786 0.007626   -0.319162
 N 0.276056 0.408501 0.07837   -0.281466
 N 0.11043 0.288964 0.628004   -0.325388
 N 0.081094 0.638735 0.61591   -0.334438
 N 0.451266 0.637118 0.49254   -0.318754
 N 0.685154 0.591358 0.421821   -0.281263
 N 0.399888 0.71118 0.872211   -0.325686
 N 0.720278 0.361077 0.884054   -0.334995
 O 0.890452 0.546902 0.214081   -0.613288
 O 0.800112 0.728358 0.159942   -0.588547
 O 0.612338 0.616042 0.147515   -0.52799
 O 0.585354 0.521734 0.048932   -0.619219
 O 0.437056 0.453437 0.285701   -0.613864
 O 0.529754 0.271948 0.33977   -0.588353
 O 0.229416 0.383034 0.3526   -0.525868
 O 0.107358 0.478138 0.450611   -0.618574
 O 0.109554 0.453047 0.785872   -0.613396
 O 0.199888 0.271592 0.840013   -0.588746
 O 0.38767 0.383922 0.852424   -0.527986
 O 0.414652 0.478227 0.951011   -0.61867
 O 0.563006 0.546499 0.71425   -0.613706
 O 0.470238 0.727988 0.660188   -0.588083
 O 0.770584 0.616961 0.647333   -0.526105
 O 0.892654 0.521817 0.549351   -0.618349
