#{'_ref': 'TBD', '_srcid': 'CAKYAQ_clean', 'submitters': [{'name': 'Dalar Nazarian Jeff Camp and David Sholl', 'email': 'dalar@gatech.edu jcamp6@gatech.edu'}], '_method': 'VASP DFT with PBE;DDEC'}
data_Zn4H24C42O13
_symmetry_space_group_name_H-M   'P 1'
_cell_length_a   17.23300046
_cell_length_b   17.25600007
_cell_length_c   17.40700000
_cell_angle_alpha   86.75999945
_cell_angle_beta   86.93500133
_cell_angle_gamma   89.30200141
_symmetry_Int_Tables_number   1
_chemical_formula_structural   Zn4H24C42O13
_chemical_formula_sum   'Zn8 H48 C84 O26'
_cell_volume   5160.48099523
_cell_formula_units_Z   2
loop_
 _symmetry_equiv_pos_site_id
 _symmetry_equiv_pos_as_xyz
  1  'x, y, z'
loop_
 _atom_site_label
 _atom_site_fract_x
 _atom_site_fract_y
 _atom_site_fract_z
 _atom_site_charge
 Zn 0.07578 0.209978 0.666028   1.112457
 Zn 0.206694 0.081885 0.659579   1.114299
 Zn 0.079601 0.076414 0.80329   1.100447
 Zn 0.206252 0.206392 0.793473   1.118816
 Zn 0.793121 0.926844 0.335953   1.114784
 Zn 0.919958 0.794026 0.340023   1.114153
 Zn 0.923858 0.923399 0.197133   1.09832
 Zn 0.793951 0.796847 0.206991   1.11881
 H 0.842965 0.174425 0.619126   0.115571
 H 0.699059 0.165482 0.617151   0.112568
 H 0.691432 0.059967 0.847876   0.112832
 H 0.83553 0.066115 0.847669   0.115626
 H 0.593543 0.073309 0.618292   0.113216
 H 0.449255 0.081725 0.617606   0.115298
 H 0.439722 0.166161 0.845298   0.116717
 H 0.583714 0.155471 0.847876   0.115209
 H 0.178931 0.035643 0.284487   0.103679
 H 0.18872 0.03806 0.426263   0.107522
 H 0.170105 0.847732 0.608267   0.11397
 H 0.162861 0.703573 0.605358   0.114467
 H 0.098626 0.68902 0.848345   0.116628
 H 0.101741 0.833163 0.849553   0.115254
 H 0.065264 0.596015 0.625262   0.115015
 H 0.068338 0.451422 0.626069   0.11499
 H 0.205468 0.441836 0.825267   0.116006
 H 0.199325 0.58614 0.827621   0.112973
 H 0.062608 0.258314 0.282744   0.104763
 H 0.070813 0.258897 0.425127   0.109885
 H 0.830696 0.159053 0.382707   0.1151
 H 0.838083 0.302948 0.383562   0.112728
 H 0.936671 0.311111 0.150381   0.112601
 H 0.93186 0.167057 0.151513   0.115854
 H 0.929325 0.408448 0.379795   0.112957
 H 0.920939 0.55252 0.38032   0.11588
 H 0.830139 0.562174 0.154979   0.116703
 H 0.840978 0.418359 0.15243   0.114395
 H 0.968113 0.819554 0.716427   0.104363
 H 0.96556 0.809773 0.574594   0.107145
 H 0.153816 0.83344 0.391915   0.113554
 H 0.2981 0.841935 0.395127   0.114283
 H 0.31188 0.907332 0.152254   0.117077
 H 0.167598 0.903039 0.150776   0.115272
 H 0.405493 0.940914 0.375035   0.115413
 H 0.550351 0.938604 0.374037   0.113926
 H 0.559669 0.801426 0.175459   0.115873
 H 0.415159 0.806829 0.173241   0.113424
 H 0.745333 0.936038 0.717291   0.10485
 H 0.744667 0.927953 0.574914   0.110564
 H 0.165725 0.264164 0.0272   0.113338
 H 0.158364 0.266613 0.170424   0.113307
 H 0.081249 0.029229 0.186805   0.11015
 H 0.084427 0.029046 0.04424   0.114699
 H 0.73858 0.833434 0.972479   0.113413
 H 0.737048 0.839596 0.829137   0.113256
 H 0.974017 0.918638 0.814052   0.11095
 H 0.973154 0.916907 0.956731   0.11525
 C 0.933933 0.130745 0.735626   0.700674
 C 0.847987 0.122063 0.733898   -0.124527
 C 0.80918 0.148738 0.668567   -0.044094
 C 0.728838 0.143291 0.667676   -0.158593
 C 0.684813 0.113152 0.732776   0.078555
 C 0.724369 0.085342 0.797594   -0.166219
 C 0.805017 0.088705 0.797854   -0.037148
 C 0.59898 0.114024 0.733096   0.082597
 C 0.559991 0.093656 0.668247   -0.164645
 C 0.479387 0.098158 0.66756   -0.043103
 C 0.435589 0.124905 0.73119   -0.128808
 C 0.473916 0.144967 0.796256   -0.045057
 C 0.554378 0.138567 0.797514   -0.160518
 C 0.349369 0.132968 0.729237   0.705705
 C 0.155031 0.084647 0.315133   -0.149604
 C 0.160862 0.085859 0.394388   -0.046186
 C 0.141515 0.935002 0.730788   0.697574
 C 0.136959 0.848987 0.72912   -0.125715
 C 0.153625 0.812312 0.660223   -0.044621
 C 0.149373 0.731993 0.658913   -0.159129
 C 0.131133 0.686401 0.726874   0.082613
 C 0.114382 0.723728 0.795656   -0.158306
 C 0.115996 0.804178 0.796585   -0.052868
 C 0.132033 0.600887 0.726506   0.080587
 C 0.096024 0.562287 0.66917   -0.16238
 C 0.097568 0.481694 0.669355   -0.044796
 C 0.137293 0.438082 0.725523   -0.122845
 C 0.174149 0.476189 0.782357   -0.046315
 C 0.17037 0.556602 0.783532   -0.160787
 C 0.140136 0.351764 0.725221   0.704039
 C 0.146327 0.213437 0.062829   -0.052748
 C 0.142011 0.214506 0.142767   -0.159664
 C 0.099877 0.080891 0.152244   -0.14627
 C 0.101637 0.080491 0.072344   -0.045369
 C 0.091012 0.210364 0.314019   -0.15741
 C 0.095085 0.210747 0.393554   -0.04553
 C 0.13234 0.144184 0.941327   0.698891
 C 0.126304 0.146277 0.02685   -0.130479
 C 0.120232 0.147811 0.188726   0.080302
 C 0.121307 0.147525 0.273521   0.084087
 C 0.131184 0.149075 0.434351   -0.127515
 C 0.138201 0.150702 0.519184   0.699556
 C 0.871746 0.068409 0.265747   0.702426
 C 0.879647 0.154331 0.266745   -0.125698
 C 0.854503 0.192975 0.332459   -0.041916
 C 0.859062 0.273297 0.332699   -0.159795
 C 0.886907 0.317401 0.26668   0.079125
 C 0.913076 0.278042 0.201403   -0.165547
 C 0.91052 0.197441 0.201693   -0.036698
 C 0.885525 0.403099 0.266114   0.082228
 C 0.907624 0.441982 0.330311   -0.164157
 C 0.903099 0.522449 0.330922   -0.044548
 C 0.874576 0.566206 0.267924   -0.127937
 C 0.852685 0.528 0.203531   -0.045124
 C 0.859186 0.447647 0.20227   -0.15959
 C 0.866927 0.652312 0.269975   0.706156
 C 0.919074 0.843472 0.685551   -0.152025
 C 0.917768 0.837642 0.6063   -0.044739
 C 0.066088 0.861902 0.269268   0.69747
 C 0.152172 0.867166 0.27113   -0.125952
 C 0.1891 0.850485 0.340065   -0.044962
 C 0.269475 0.855448 0.341549   -0.158987
 C 0.314882 0.874393 0.273695   0.083229
 C 0.277305 0.891102 0.204865   -0.159312
 C 0.196783 0.888806 0.203777   -0.052659
 C 0.400515 0.87412 0.274069   0.081276
 C 0.439245 0.910383 0.331169   -0.164033
 C 0.519987 0.909287 0.33086   -0.043209
 C 0.563564 0.86974 0.274816   -0.123409
 C 0.525299 0.832688 0.218193   -0.046561
 C 0.444785 0.836019 0.217116   -0.161504
 C 0.650005 0.866436 0.275036   0.705634
 C 0.789383 0.853 0.937079   -0.052237
 C 0.788847 0.856595 0.857126   -0.160017
 C 0.922283 0.899843 0.848398   -0.14704
 C 0.922083 0.898904 0.928311   -0.046662
 C 0.793265 0.907626 0.68618   -0.157165
 C 0.792815 0.903591 0.6067   -0.044842
 C 0.857439 0.869008 0.058962   0.697176
 C 0.856114 0.874088 0.973397   -0.129134
 C 0.855702 0.878655 0.811595   0.080006
 C 0.856187 0.877259 0.726854   0.085955
 C 0.854487 0.867459 0.566167   -0.129255
 C 0.852614 0.861028 0.481344   0.701991
 O 0.967601 0.093123 0.790027   -0.611839
 O 0.966701 0.175776 0.683072   -0.616544
 O 0.314803 0.169707 0.783225   -0.618149
 O 0.089626 0.319796 0.68649   -0.61551
 O 0.099312 0.202879 0.554214   -0.618642
 O 0.103507 0.966204 0.786324   -0.610741
 O 0.18294 0.970082 0.67701   -0.610538
 O 0.192779 0.317211 0.763696   -0.617359
 O 0.317138 0.102884 0.673638   -0.619135
 O 0.183007 0.09983 0.550441   -0.615209
 O 0.142513 0.14353 0.730449   -1.255738
 O 0.099967 0.087171 0.912096   -0.613875
 O 0.169639 0.198925 0.903559   -0.621272
 O 0.906856 0.03513 0.209833   -0.612082
 O 0.829849 0.035094 0.320485   -0.618642
 O 0.827371 0.687097 0.218062   -0.616472
 O 0.682935 0.916448 0.313525   -0.616939
 O 0.800098 0.900207 0.44674   -0.620959
 O 0.034492 0.89984 0.213733   -0.610573
 O 0.031349 0.820014 0.322892   -0.610804
 O 0.68358 0.813501 0.236513   -0.618268
 O 0.900351 0.684071 0.323889   -0.620361
 O 0.903323 0.816609 0.449624   -0.614985
 O 0.857543 0.859723 0.270158   -1.255236
 O 0.913143 0.903284 0.088503   -0.612154
 O 0.803285 0.830591 0.096392   -0.62046
