#{'_ref': 'TBD', '_srcid': 'CAKYAQ_clean', 'submitters': [{'name': 'Dalar Nazarian Jeff Camp and David Sholl', 'email': 'dalar@gatech.edu jcamp6@gatech.edu'}], '_method': 'VASP DFT with PBE;DDEC'}
data_Sr2CdH8C16(NO7)2
_symmetry_space_group_name_H-M   'P 1'
_cell_length_a   10.87800047
_cell_length_b   18.06599952
_cell_length_c   18.06700000
_cell_angle_alpha   90.18600071
_cell_angle_beta   90.21200223
_cell_angle_gamma   90.42700142
_symmetry_Int_Tables_number   1
_chemical_formula_structural   Sr2CdH8C16(NO7)2
_chemical_formula_sum   'Sr8 Cd4 H32 C64 N8 O56'
_cell_volume   3550.42015867
_cell_formula_units_Z   4
loop_
 _symmetry_equiv_pos_site_id
 _symmetry_equiv_pos_as_xyz
  1  'x, y, z'
loop_
 _atom_site_label
 _atom_site_fract_x
 _atom_site_fract_y
 _atom_site_fract_z
 _atom_site_charge
 Sr 0.938897 0.829405 0.407325   1.580633
 Sr 0.436473 0.170843 0.588725   1.561056
 Sr 0.689845 0.910279 0.669114   1.529468
 Sr 0.185997 0.090421 0.326642   1.583054
 Sr 0.81552 0.672394 0.907435   1.583845
 Sr 0.314179 0.328075 0.089208   1.522612
 Sr 0.065489 0.590719 0.168991   1.582011
 Sr 0.563564 0.408975 0.828514   1.560726
 Cd 0.0025 0.633323 0.36543   1.078155
 Cd 0.498646 0.366603 0.632272   1.071975
 Cd 0.753623 0.869013 0.865775   1.000061
 Cd 0.247266 0.13299 0.130885   0.996299
 H 0.14485 0.572772 0.606953   0.121131
 H 0.160939 0.57887 0.744884   0.119519
 H 0.061435 0.680943 0.813446   0.10612
 H 0.930429 0.77156 0.607844   0.094484
 H 0.644116 0.429556 0.392237   0.120009
 H 0.660396 0.42415 0.254396   0.117227
 H 0.560461 0.32164 0.184852   0.107726
 H 0.427712 0.229607 0.389367   0.093847
 H 0.897739 0.11075 0.926858   0.100367
 H 0.912629 0.248733 0.921748   0.101184
 H 0.811482 0.316829 0.819869   0.096788
 H 0.680868 0.110626 0.727538   0.0783
 H 0.396882 0.893166 0.069901   0.119408
 H 0.414115 0.755441 0.076312   0.118323
 H 0.313004 0.686651 0.177967   0.108548
 H 0.177999 0.891666 0.267393   0.092672
 H 0.608721 0.928456 0.107347   0.119813
 H 0.591452 0.921286 0.245078   0.11813
 H 0.691599 0.819163 0.313019   0.108717
 H 0.825356 0.73051 0.107218   0.093616
 H 0.102565 0.069424 0.889768   0.100828
 H 0.08855 0.074026 0.751818   0.101036
 H 0.189803 0.176048 0.683341   0.094496
 H 0.3195 0.269233 0.889184   0.078236
 H 0.855008 0.393103 0.425524   0.121104
 H 0.838393 0.255129 0.420523   0.11943
 H 0.939287 0.185799 0.319295   0.106364
 H 0.07227 0.390785 0.227371   0.093361
 H 0.355853 0.60648 0.570436   0.119678
 H 0.342269 0.744466 0.574494   0.117435
 H 0.443756 0.814551 0.675967   0.108314
 H 0.571769 0.610282 0.770053   0.09498
 C 0.031033 0.671077 0.516489   0.704216
 C 0.912695 0.789407 0.754719   0.74848
 C 0.039393 0.672875 0.598941   -0.140914
 C 0.102323 0.617636 0.63777   -0.025454
 C 0.110127 0.620967 0.714761   -0.104576
 C 0.052561 0.677822 0.753496   -0.038448
 C 0.985398 0.731756 0.715207   -0.170177
 C 0.981171 0.729527 0.637884   -0.004751
 C 0.528791 0.330537 0.481646   0.700406
 C 0.410878 0.211846 0.242413   0.751889
 C 0.537597 0.32886 0.399262   -0.140084
 C 0.601241 0.384573 0.361005   -0.027016
 C 0.609212 0.381584 0.284047   -0.108448
 C 0.551447 0.324471 0.244768   -0.035738
 C 0.483824 0.269927 0.282475   -0.169468
 C 0.479127 0.271963 0.359777   -0.009316
 C 0.783266 0.0 0.827685   0.675247
 C 0.661577 0.257443 0.710825   0.752365
 C 0.791263 0.102216 0.826369   -0.212649
 C 0.854524 0.14133 0.882048   -0.02777
 C 0.861677 0.218364 0.879265   -0.096064
 C 0.803171 0.256835 0.822537   -0.092868
 C 0.735645 0.218233 0.768164   -0.161101
 C 0.732022 0.14089 0.769853   -0.011513
 C 0.279154 0.983218 0.166809   0.699893
 C 0.162285 0.744917 0.285862   0.750288
 C 0.28892 0.900913 0.169259   -0.141742
 C 0.353639 0.862261 0.114556   -0.029288
 C 0.362109 0.785373 0.118073   -0.104862
 C 0.30376 0.746509 0.174697   -0.039455
 C 0.235322 0.784606 0.228269   -0.166349
 C 0.230102 0.861852 0.225746   -0.006328
 C 0.724439 0.831342 0.016423   0.702227
 C 0.842094 0.711796 0.254124   0.749572
 C 0.715348 0.82885 0.098801   -0.143071
 C 0.651462 0.883546 0.137894   -0.030137
 C 0.642985 0.879612 0.214771   -0.104013
 C 0.700882 0.822734 0.253177   -0.03963
 C 0.768981 0.769318 0.214691   -0.166712
 C 0.77386 0.772122 0.13743   -0.006261
 C 0.216853 0.169084 0.0   0.675913
 C 0.33871 0.28599 0.742468   0.75288
 C 0.209173 0.170152 0.897962   -0.211462
 C 0.146075 0.11421 0.85905   -0.028184
 C 0.139355 0.116734 0.78201   -0.096336
 C 0.197878 0.173547 0.743337   -0.088235
 C 0.265059 0.228245 0.781763   -0.162158
 C 0.268475 0.226712 0.85909   -0.010986
 C 0.971192 0.482869 0.327422   0.702703
 C 0.088984 0.243718 0.210705   0.748831
 C 0.961961 0.400426 0.325712   -0.141507
 C 0.897964 0.361959 0.381013   -0.024142
 C 0.889858 0.284938 0.378294   -0.106354
 C 0.94804 0.245801 0.321924   -0.036738
 C 0.015927 0.28375 0.26782   -0.170072
 C 0.020657 0.361094 0.269471   -0.004432
 C 0.469423 0.517458 0.670298   0.703859
 C 0.592292 0.75733 0.785934   0.751795
 C 0.461936 0.599922 0.67108   -0.141112
 C 0.399257 0.637937 0.615043   -0.026562
 C 0.392862 0.714976 0.617233   -0.109921
 C 0.451539 0.754562 0.673754   -0.034447
 C 0.518418 0.717067 0.728512   -0.171011
 C 0.521224 0.639713 0.727409   -0.00747
 N 0.705909 0.852777 0.506238   0.823619
 N 0.2013 0.147022 0.490055   0.822564
 N 0.455092 0.0 0.644117   0.908117
 N 0.951608 0.991899 0.349745   0.822361
 N 0.049314 0.647372 0.006372   0.82405
 N 0.548701 0.35271 0.0   0.917533
 N 0.298666 0.491231 0.145252   0.824395
 N 0.798827 0.509169 0.851709   0.822717
 O 0.083336 0.619099 0.481256   -0.568902
 O 0.969025 0.721633 0.483886   -0.753079
 O 0.891758 0.779585 0.824533   -0.699949
 O 0.870721 0.843797 0.719035   -0.709138
 O 0.707041 0.824715 0.442347   -0.486856
 O 0.807615 0.878472 0.534529   -0.60183
 O 0.608387 0.856188 0.543872   -0.512927
 O 0.583349 0.381832 0.517436   -0.566459
 O 0.463911 0.280477 0.513767   -0.744376
 O 0.389487 0.221929 0.17261   -0.703684
 O 0.369156 0.156882 0.277715   -0.708525
 O 0.202965 0.17468 0.554109   -0.484179
 O 0.302648 0.121745 0.462066   -0.621174
 O 0.103822 0.143667 0.451874   -0.51437
 O 0.838277 0.984566 0.878699   -0.44719
 O 0.718541 0.986975 0.777715   -0.621503
 O 0.63982 0.327074 0.721449   -0.70964
 O 0.619172 0.221789 0.655977   -0.715831
 O 0.457795 0.944005 0.671765   -0.529717
 O 0.555973 0.037263 0.619034   -0.664172
 O 0.356647 0.0 0.640594   -0.425578
 O 0.333288 0.018593 0.115596   -0.563364
 O 0.213739 0.015714 0.216093   -0.743642
 O 0.14111 0.674961 0.275782   -0.706116
 O 0.120385 0.78056 0.340438   -0.710925
 O 0.952601 0.055713 0.321965   -0.481434
 O 0.053591 0.964524 0.375178   -0.609492
 O 0.854435 0.953342 0.353211   -0.514663
 O 0.672319 0.883466 0.981432   -0.565506
 O 0.786961 0.781093 0.983638   -0.74531
 O 0.863372 0.72193 0.324043   -0.705702
 O 0.884087 0.657333 0.21844   -0.710132
 O 0.047705 0.67545 0.942674   -0.485006
 O 0.947715 0.62195 0.034463   -0.605206
 O 0.147196 0.643754 0.044048   -0.518072
 O 0.161493 0.118202 0.015782   -0.447436
 O 0.281801 0.21918 0.013039   -0.622545
 O 0.359903 0.275851 0.672675   -0.711145
 O 0.381106 0.340824 0.778193   -0.714572
 O 0.547046 0.325051 0.054842   -0.520339
 O 0.447385 0.377955 0.96261   -0.672658
 O 0.646237 0.356181 0.0   -0.426179
 O 0.916682 0.518319 0.378387   -0.567984
 O 0.03642 0.515381 0.277974   -0.752963
 O 0.109865 0.1741 0.221406   -0.701819
 O 0.131282 0.278644 0.155774   -0.706738
 O 0.297363 0.555648 0.172128   -0.488624
 O 0.197533 0.46262 0.119057   -0.600245
 O 0.395857 0.453324 0.143608   -0.513636
 O 0.416417 0.481488 0.618509   -0.568388
 O 0.531678 0.485617 0.721368   -0.745922
 O 0.613924 0.827126 0.775652   -0.703453
 O 0.634533 0.722197 0.840708   -0.709543
 O 0.796567 0.444743 0.824893   -0.488636
 O 0.698215 0.537307 0.877818   -0.619401
 O 0.896453 0.547511 0.853421   -0.515797
