#{'_ref': 'TBD', '_srcid': 'CAKYAQ_clean', 'submitters': [{'name': 'Dalar Nazarian Jeff Camp and David Sholl', 'email': 'dalar@gatech.edu jcamp6@gatech.edu'}], '_method': 'VASP DFT with PBE;DDEC'}
data_ZnH12C15(NO)4
_symmetry_space_group_name_H-M   'P 1'
_cell_length_a   8.83700019
_cell_length_b   15.67699983
_cell_length_c   19.44400000
_cell_angle_alpha   90.03500170
_cell_angle_beta   90.01200119
_cell_angle_gamma   90.14600076
_symmetry_Int_Tables_number   1
_chemical_formula_structural   ZnH12C15(NO)4
_chemical_formula_sum   'Zn4 H48 C60 N16 O16'
_cell_volume   2693.71676852
_cell_formula_units_Z   4
loop_
 _symmetry_equiv_pos_site_id
 _symmetry_equiv_pos_as_xyz
  1  'x, y, z'
loop_
 _atom_site_label
 _atom_site_fract_x
 _atom_site_fract_y
 _atom_site_fract_z
 _atom_site_charge
 Zn 0.36131 0.947327 0.072504   0.878936
 Zn 0.13825 0.052696 0.572514   0.879257
 Zn 0.643206 0.447106 0.424611   0.878597
 Zn 0.8611 0.552995 0.924819   0.879163
 H 0.726728 0.134152 0.495688   0.145779
 H 0.144596 0.986607 0.312584   0.163176
 H 0.769832 0.290928 0.494147   0.084914
 H 0.838018 0.888273 0.417851   0.15011
 H 0.783922 0.988797 0.384763   0.117544
 H 0.141054 0.965289 0.185   0.100103
 H 0.367834 0.174024 0.347131   0.152134
 H 0.426382 0.327859 0.352012   0.08382
 H 0.60394 0.006155 0.170491   0.100467
 H 0.626512 0.032843 0.296   0.141921
 H 0.286674 0.026581 0.412156   0.295123
 H 0.69826 0.919746 0.530062   0.118895
 H 0.773588 0.865762 0.995612   0.145252
 H 0.354652 0.014107 0.812679   0.163245
 H 0.732518 0.708805 0.0   0.085415
 H 0.66122 0.112303 0.91852   0.150275
 H 0.715544 0.012066 0.884841   0.117687
 H 0.358266 0.03515 0.685091   0.099902
 H 0.132766 0.82683 0.847066   0.152242
 H 0.076244 0.672796 0.852159   0.084359
 H 0.895486 0.99393 0.670418   0.100784
 H 0.872848 0.967528 0.795942   0.142154
 H 0.212706 0.974006 0.912126   0.294925
 H 0.801206 0.080335 0.03044   0.118131
 H 0.273012 0.63419 0.0022   0.146103
 H 0.855918 0.488049 0.183965   0.163242
 H 0.23206 0.791 0.003458   0.08605
 H 0.158304 0.388623 0.079005   0.15032
 H 0.214766 0.488533 0.113036   0.117904
 H 0.861684 0.466573 0.311506   0.099941
 H 0.633048 0.674201 0.150381   0.152163
 H 0.576692 0.828105 0.14516   0.083528
 H 0.398874 0.50544 0.327636   0.100981
 H 0.374056 0.532111 0.202241   0.14214
 H 0.712458 0.527424 0.085059   0.294834
 H 0.298674 0.420684 0.967181   0.119155
 H 0.229082 0.365477 0.502338   0.146173
 H 0.647122 0.512139 0.684289   0.163145
 H 0.26852 0.208541 0.503502   0.085308
 H 0.345046 0.611242 0.578854   0.150689
 H 0.288614 0.511338 0.61279   0.118045
 H 0.641878 0.5333 0.811913   0.100436
 H 0.868568 0.326655 0.650377   0.151999
 H 0.92344 0.172591 0.64509   0.083808
 H 0.104902 0.494916 0.827567   0.100887
 H 0.129184 0.468555 0.702087   0.141827
 H 0.79041 0.472953 0.58521   0.295031
 H 0.204412 0.57907 0.466974   0.118915
 C 0.684092 0.955698 0.482462   0.033039
 C 0.386898 0.00989 0.315443   0.321072
 C 0.555062 0.000132000000001 0.477887   -0.150579
 C 0.54271 0.139659 0.421161   0.242698
 C 0.657528 0.174795 0.463056   -0.279679
 C 0.248402 0.989953 0.282432   -0.296454
 C 0.681784 0.261988 0.462509   0.171175
 C 0.810988 0.954565 0.43238   -0.349856
 C 0.958656 0.992329 0.461955   0.711452
 C 0.246564 0.977108 0.212415   0.162727
 C 0.45832 0.196699 0.38033   -0.296012
 C 0.490688 0.282932 0.383206   0.164462
 C 0.505128 0.001172 0.203907   0.158717
 C 0.517542 0.015936 0.27381   -0.32834
 C 0.440378 0.000776000000002 0.535509   0.63747
 C 0.815344 0.044551 0.982746   0.033678
 C 0.112386 0.990697 0.81546   0.320399
 C 0.944384 0.000140000000002 0.978031   -0.150655
 C 0.957676 0.860732 0.921131   0.243939
 C 0.843296 0.825282 0.963043   -0.275169
 C 0.250872 0.010644 0.782492   -0.296127
 C 0.820196 0.73799 0.962633   0.159658
 C 0.688422 0.04592 0.932653   -0.350668
 C 0.540836 0.00786 0.962014   0.711428
 C 0.252752 0.023312 0.712468   0.162546
 C 0.042648 0.803909 0.88032   -0.295563
 C 0.011434 0.717558 0.883323   0.162706
 C 0.994252 0.999058 0.703873   0.158533
 C 0.9818 0.984461 0.773783   -0.327651
 C 0.059156 0.0 0.035613   0.637316
 C 0.313754 0.456182 0.014972   0.033566
 C 0.613432 0.510114 0.18192   0.319845
 C 0.443278 0.50055 0.019536   -0.153151
 C 0.457492 0.63976 0.076517   0.242349
 C 0.34292 0.674873 0.034684   -0.278229
 C 0.752558 0.4908 0.214454   -0.296283
 C 0.319896 0.762099 0.035032   0.169446
 C 0.18699 0.454973 0.065132   -0.350876
 C 0.040374 0.493754 0.035646   0.711661
 C 0.75567 0.477886 0.284435   0.162443
 C 0.542766 0.696851 0.117194   -0.295633
 C 0.511636 0.783126 0.114117   0.164083
 C 0.497132 0.500852 0.293866   0.157878
 C 0.483476 0.515624 0.224017   -0.326916
 C 0.556898 0.501923 0.961481   0.636707
 C 0.18939 0.543723 0.514829   0.03327
 C 0.889694 0.490377 0.68202   0.319839
 C 0.059694 0.499563 0.519566   -0.150391
 C 0.044538 0.360525 0.576603   0.24301
 C 0.158772 0.325035 0.534784   -0.278976
 C 0.750636 0.509457 0.714694   -0.296104
 C 0.180936 0.237738 0.535082   0.169895
 C 0.31631 0.544896 0.564914   -0.351086
 C 0.462938 0.506125 0.535411   0.711055
 C 0.747806 0.522203 0.784716   0.16184
 C 0.95868 0.303725 0.617214   -0.294616
 C 0.988962 0.21735 0.614099   0.163838
 C 0.006466 0.499476 0.793888   0.157726
 C 0.019832 0.48488 0.724001   -0.325906
 C 0.945732 0.498106 0.461663   0.635223
 N 0.38692 0.024745 0.384456   -0.292513
 N 0.51793 0.052099 0.418728   0.046194
 N 0.600326 0.316771 0.423419   -0.373298
 N 0.37267 0.981569 0.172432   -0.389868
 N 0.112354 0.97607 0.884496   -0.292714
 N 0.981532 0.948379 0.918704   0.045795
 N 0.902392 0.683403 0.923639   -0.365252
 N 0.126696 0.018665 0.67244   -0.389811
 N 0.612428 0.524793 0.112878   -0.29318
 N 0.481302 0.552169 0.078906   0.047214
 N 0.402396 0.816952 0.073874   -0.371969
 N 0.630204 0.481744 0.324859   -0.389637
 N 0.890596 0.475957 0.612928   -0.293431
 N 0.021588 0.448208 0.579024   0.045054
 N 0.097876 0.183165 0.573862   -0.372314
 N 0.873498 0.518387 0.825021   -0.389809
 O 0.960402 0.000390000000003 0.528367   -0.628989
 O 0.062672 0.011681 0.421695   -0.597833
 O 0.45683 0.956524 0.587586   -0.571055
 O 0.328178 0.052928 0.522618   -0.628114
 O 0.538906 0.0 0.028384   -0.628975
 O 0.437048 0.98838 0.92163   -0.597688
 O 0.04288 0.043528 0.087774   -0.566244
 O 0.171248 0.94713 0.022609   -0.632359
 O 0.037836 0.500291 0.96917   -0.62932
 O 0.937868 0.515136 0.075966   -0.596847
 O 0.537522 0.459494 0.908549   -0.569796
 O 0.67128 0.552626 0.974922   -0.62887
 O 0.465746 0.499625 0.46891   -0.62925
 O 0.565256 0.484739 0.57584   -0.597472
 O 0.963978 0.540703 0.408787   -0.569847
 O 0.831944 0.44703 0.475148   -0.626507
