#{'_ref': 'TBD', '_srcid': 'CAKYAQ_clean', 'submitters': [{'name': 'Dalar Nazarian Jeff Camp and David Sholl', 'email': 'dalar@gatech.edu jcamp6@gatech.edu'}], '_method': 'VASP DFT with PBE;DDEC'}
data_ZnH10C17N3O4
_symmetry_space_group_name_H-M   'P 1'
_cell_length_a   14.01699959
_cell_length_b   15.19900008
_cell_length_c   15.24900000
_cell_angle_alpha   85.04000111
_cell_angle_beta   87.60299892
_cell_angle_gamma   83.92800088
_symmetry_Int_Tables_number   1
_chemical_formula_structural   ZnH10C17N3O4
_chemical_formula_sum   'Zn4 H40 C68 N12 O16'
_cell_volume   3216.6390823
_cell_formula_units_Z   4
loop_
 _symmetry_equiv_pos_site_id
 _symmetry_equiv_pos_as_xyz
  1  'x, y, z'
loop_
 _atom_site_label
 _atom_site_fract_x
 _atom_site_fract_y
 _atom_site_fract_z
 _atom_site_charge
 Zn 0.109166 0.900324 0.159908   0.887236
 Zn 0.312841 0.881192 0.155005   0.883045
 Zn 0.890894 0.099641 0.840094   0.886404
 Zn 0.687212 0.118774 0.844994   0.883212
 H 0.792305 0.868649 0.018969   0.122347
 H 0.769849 0.906659 0.297461   0.139184
 H 0.645431 0.928515 0.018331   0.141405
 H 0.063002 0.871253 0.890998   0.1003
 H 0.058064 0.861918 0.729342   0.131528
 H 0.363524 0.902846 0.857737   0.076587
 H 0.966363 0.883901 0.024611   0.102398
 H 0.946807 0.912931 0.292363   0.100162
 H 0.354548 0.840958 0.443272   0.081267
 H 0.054668 0.933787 0.43877   0.0946
 H 0.36779 0.602733 0.118262   0.11076
 H 0.055071 0.933615 0.602895   0.117861
 H 0.367761 0.43766 0.116076   0.121108
 H 0.063251 0.202475 0.125059   0.075253
 H 0.364782 0.309446 0.200599   0.129863
 H 0.358602 0.145858 0.194731   0.116226
 H 0.469058 0.917369 0.021919   0.098388
 H 0.071999 0.613938 0.206033   0.090057
 H 0.641941 0.836495 0.295276   0.1394
 H 0.46457 0.836809 0.287941   0.109494
 H 0.207761 0.131319 0.98103   0.122349
 H 0.230224 0.093315 0.702537   0.139108
 H 0.354635 0.071449 0.981672   0.141395
 H 0.937095 0.128723 0.109026   0.099906
 H 0.941995 0.138077 0.270682   0.131728
 H 0.636571 0.097126 0.142235   0.07651
 H 0.033703 0.116068 0.975383   0.102343
 H 0.053267 0.087044 0.70763   0.10032
 H 0.645497 0.159014 0.556726   0.081084
 H 0.945376 0.066187 0.561234   0.094899
 H 0.632244 0.397244 0.881707   0.110967
 H 0.944976 0.066356 0.397109   0.117932
 H 0.632278 0.562315 0.883889   0.121009
 H 0.936805 0.797484 0.874955   0.075145
 H 0.635278 0.69053 0.799378   0.129641
 H 0.641465 0.854116 0.80525   0.116175
 H 0.531009 0.082591 0.978086   0.098336
 H 0.928053 0.386023 0.793989   0.09002
 H 0.358129 0.163484 0.704729   0.139324
 H 0.535501 0.163167 0.712068   0.10954
 C 0.660092 0.882258 0.156949   0.123444
 C 0.764903 0.886251 0.158164   0.110182
 C 0.822462 0.879802 0.081092   -0.177931
 C 0.218509 0.894027 0.984221   0.671127
 C 0.207642 0.887086 0.330025   0.682791
 C 0.810524 0.898339 0.235852   -0.196627
 C 0.609404 0.905184 0.079281   -0.202099
 C 0.216733 0.719196 0.163068   0.683548
 C 0.213925 0.887877 0.887   -0.20282
 C 0.127385 0.87627 0.849367   0.038805
 C 0.124761 0.872755 0.758942   -0.218326
 C 0.210479 0.161649 0.158206   -0.214525
 C 0.294626 0.894624 0.830221   0.176135
 C 0.206418 0.885164 0.609421   0.237634
 C 0.219741 0.620451 0.162607   -0.187143
 C 0.920068 0.88709 0.083569   0.151105
 C 0.908732 0.903808 0.233514   0.134758
 C 0.208676 0.883141 0.707012   0.228878
 C 0.287082 0.861691 0.477605   0.182715
 C 0.20482 0.887126 0.428448   -0.189795
 C 0.11981 0.913253 0.474792   0.023546
 C 0.204841 0.06418 0.15393   0.663689
 C 0.303985 0.569693 0.137564   0.018059
 C 0.120435 0.912525 0.565865   -0.22758
 C 0.216774 0.341917 0.162397   0.246112
 C 0.303647 0.478393 0.137211   -0.227063
 C 0.131473 0.224669 0.141258   0.175141
 C 0.299459 0.283793 0.18201   -0.227449
 C 0.296324 0.193086 0.179549   0.01842
 C 0.218914 0.439595 0.162259   0.236932
 C 0.510901 0.901116 0.080832   0.132269
 C 0.138635 0.575792 0.186205   0.180656
 C 0.607031 0.856422 0.233205   -0.193443
 C 0.508366 0.855257 0.229876   0.134871
 C 0.339977 0.117713 0.843054   0.123414
 C 0.235167 0.11372 0.841835   0.110254
 C 0.177605 0.120168 0.918906   -0.177939
 C 0.781629 0.105927 0.015776   0.670617
 C 0.792401 0.112889 0.669977   0.682332
 C 0.189547 0.101635 0.764146   -0.196312
 C 0.390663 0.094783 0.920722   -0.202068
 C 0.783305 0.280772 0.836932   0.683281
 C 0.786178 0.112087 0.112999   -0.203232
 C 0.872705 0.12371 0.150646   0.039515
 C 0.875308 0.12723 0.241071   -0.218617
 C 0.789582 0.838317 0.841794   -0.214336
 C 0.705463 0.105348 0.169762   0.176246
 C 0.793632 0.114814 0.39058   0.237628
 C 0.780301 0.379518 0.837387   -0.186929
 C 0.079999 0.112881 0.916427   0.150881
 C 0.091339 0.096166 0.766481   0.13443
 C 0.791385 0.116838 0.292988   0.229188
 C 0.712964 0.138285 0.522394   0.182925
 C 0.795225 0.112851 0.571553   -0.189298
 C 0.880235 0.08672 0.525211   0.02271
 C 0.795221 0.935786 0.846069   0.663636
 C 0.696055 0.430279 0.862417   0.01755
 C 0.879613 0.087451 0.434138   -0.227447
 C 0.783279 0.658051 0.837599   0.246268
 C 0.696395 0.52158 0.862766   -0.226449
 C 0.868584 0.775294 0.85875   0.175401
 C 0.7006 0.716179 0.817977   -0.22722
 C 0.703739 0.806884 0.820437   0.018146
 C 0.781135 0.560373 0.837734   0.236517
 C 0.489166 0.098849 0.919173   0.132193
 C 0.861413 0.424172 0.813803   0.180398
 C 0.393038 0.143553 0.7668   -0.193101
 C 0.491702 0.144717 0.77013   0.134214
 N 0.460564 0.877205 0.154882   -0.260187
 N 0.963007 0.898862 0.158579   -0.268723
 N 0.293166 0.893487 0.742631   -0.393983
 N 0.1333 0.312341 0.142712   -0.37349
 N 0.289183 0.860404 0.565336   -0.382357
 N 0.137094 0.487871 0.186504   -0.381572
 N 0.539503 0.122762 0.845124   -0.25969
 N 0.037061 0.101111 0.841415   -0.268359
 N 0.706902 0.106496 0.257353   -0.394331
 N 0.866753 0.687622 0.857291   -0.373652
 N 0.710863 0.139568 0.434663   -0.382428
 N 0.862959 0.512092 0.813508   -0.381276
 O 0.298984 0.904177 0.015613   -0.589003
 O 0.139532 0.888907 0.028098   -0.58339
 O 0.287835 0.863874 0.292265   -0.587254
 O 0.12858 0.911176 0.291969   -0.588347
 O 0.123783 0.037814 0.140888   -0.578883
 O 0.295889 0.752218 0.144005   -0.587077
 O 0.136956 0.762499 0.181567   -0.587328
 O 0.284069 0.015148 0.162945   -0.592869
 O 0.701164 0.095775 0.984365   -0.588612
 O 0.860621 0.111047 0.971919   -0.58284
 O 0.712207 0.136104 0.707735   -0.587045
 O 0.871459 0.08879 0.708035   -0.588108
 O 0.876281 0.96215 0.859109   -0.578913
 O 0.704148 0.247752 0.855998   -0.586941
 O 0.863082 0.237465 0.818439   -0.587264
 O 0.715994 0.984818 0.837047   -0.592706
