#{'_ref': 'TBD', '_srcid': 'CAKYAQ_clean', 'submitters': [{'name': 'Dalar Nazarian Jeff Camp and David Sholl', 'email': 'dalar@gatech.edu jcamp6@gatech.edu'}], '_method': 'VASP DFT with PBE;DDEC'}
data_CdHgC4(SN)4
_symmetry_space_group_name_H-M   'P 1'
_cell_length_a   12.31600000
_cell_length_b   16.20199959
_cell_length_c   17.13399952
_cell_angle_alpha   89.85299905
_cell_angle_beta   89.94099878
_cell_angle_gamma   90.05900031
_symmetry_Int_Tables_number   1
_chemical_formula_structural   CdHgC4(SN)4
_chemical_formula_sum   'Cd8 Hg8 C32 S32 N32'
_cell_volume   3418.9689484
_cell_formula_units_Z   8
loop_
 _symmetry_equiv_pos_site_id
 _symmetry_equiv_pos_as_xyz
  1  'x, y, z'
loop_
 _atom_site_label
 _atom_site_fract_x
 _atom_site_fract_y
 _atom_site_fract_z
 _atom_site_charge
 Cd 0.257878 0.279878 0.535797   1.117294
 Cd 0.257886 0.779883 0.535799   1.115032
 Cd 0.757544 0.22112 0.464696   1.11819
 Cd 0.75755 0.721125 0.464694   1.117561
 Cd 0.256579 0.970154 0.035805   1.042278
 Cd 0.256566 0.470161 0.035802   1.041545
 Cd 0.756648 0.529452 0.9641   1.133727
 Cd 0.756658 0.0 0.964097   1.174669
 Hg 0.439421 0.501795 0.361222   0.397866
 Hg 0.439429 0.0 0.361228   0.405002
 Hg 0.938774 0.999301 0.638765   0.403734
 Hg 0.938773 0.49931 0.638768   0.402596
 Hg 0.438185 0.249202 0.861644   0.343264
 Hg 0.438192 0.749209 0.861648   0.345621
 Hg 0.937969 0.250191 0.138423   0.398849
 Hg 0.937966 0.750199 0.138422   0.400885
 C 0.438774 0.190252 0.412253   0.342804
 C 0.438774 0.690258 0.412248   0.342672
 C 0.404439 0.421622 0.192354   0.324191
 C 0.404454 0.921634 0.192358   0.322876
 C 0.574169 0.371941 0.471402   0.34839
 C 0.574175 0.871945 0.471403   0.347005
 C 0.209868 0.438233 0.422436   0.345114
 C 0.209876 0.938241 0.422443   0.351964
 C 0.93832 0.310801 0.5882   0.347148
 C 0.938322 0.810808 0.5882   0.348512
 C 0.90378 0.079714 0.807403   0.351662
 C 0.903773 0.57972 0.807407   0.357902
 C 0.073979 0.129172 0.528758   0.348056
 C 0.073983 0.629181 0.528763   0.345553
 C 0.709241 0.06275 0.578096   0.346513
 C 0.709243 0.562755 0.578094   0.344975
 C 0.437346 0.060288 0.0   0.017797
 C 0.437343 0.560293 0.0   0.00424
 C 0.404345 0.329589 0.692593   0.347687
 C 0.40436 0.82959 0.692594   0.348988
 C 0.573049 0.378542 0.971377   0.340977
 C 0.573058 0.878554 0.971375   0.367564
 C 0.208633 0.312082 0.922816   0.135601
 C 0.208642 0.812091 0.922821   0.132922
 C 0.937204 0.439022 0.087551   0.342377
 C 0.937207 0.93903 0.087551   0.361149
 C 0.904116 0.170907 0.307933   0.355237
 C 0.904118 0.67091 0.30793   0.352924
 C 0.072844 0.120816 0.028509   0.321131
 C 0.072836 0.620826 0.028503   0.328858
 C 0.708337 0.18683 0.07783   0.317866
 C 0.708332 0.686836 0.077835   0.348341
 S 0.520088 0.148588 0.34695   -0.19764
 S 0.520085 0.648594 0.346943   -0.199452
 S 0.483221 0.439801 0.498793   -0.185097
 S 0.483228 0.939805 0.498796   -0.179459
 S 0.226381 0.51464 0.360577   -0.193386
 S 0.226388 0.0 0.360582   -0.162005
 S 0.497985 0.396207 0.256387   -0.193892
 S 0.497999 0.896219 0.256392   -0.198058
 S 0.019272 0.352704 0.653556   -0.209386
 S 0.019271 0.852712 0.653557   -0.2133
 S 0.983157 0.061219 0.501177   -0.179065
 S 0.98316 0.561228 0.501181   -0.177975
 S 0.725726 0.986162 0.639704   -0.201734
 S 0.725726 0.486168 0.639704   -0.195934
 S 0.996945 0.105632 0.743076   -0.217634
 S 0.996942 0.605638 0.743083   -0.210415
 S 0.518594 0.102649 0.846588   -0.054784
 S 0.518597 0.602654 0.846594   -0.099158
 S 0.482222 0.310459 0.0   -0.130876
 S 0.482231 0.810472 0.0   -0.120838
 S 0.225105 0.236246 0.860729   0.016077
 S 0.225113 0.736256 0.860733   0.015593
 S 0.496872 0.355729 0.757055   -0.176764
 S 0.496887 0.85573 0.757055   -0.186909
 S 0.018119 0.397019 0.153001   -0.170551
 S 0.018118 0.897025 0.153004   -0.161873
 S 0.981853 0.188681 0.001007   -0.149706
 S 0.981847 0.688693 0.001003   -0.186609
 S 0.724859 0.262798 0.13977   -0.178162
 S 0.724856 0.762806 0.139773   -0.20408
 S 0.996632 0.144409 0.24351   -0.198517
 S 0.99663 0.644411 0.243505   -0.188427
 N 0.382218 0.221704 0.458996   -0.51924
 N 0.382219 0.721711 0.458992   -0.517887
 N 0.337349 0.437416 0.145522   -0.483932
 N 0.337364 0.937429 0.145525   -0.485697
 N 0.639789 0.322599 0.452907   -0.527959
 N 0.639794 0.822603 0.452905   -0.525829
 N 0.195697 0.383844 0.467446   -0.551547
 N 0.195705 0.883854 0.467454   -0.595203
 N 0.882024 0.279202 0.541413   -0.51534
 N 0.882028 0.779208 0.541413   -0.516918
 N 0.836922 0.063546 0.854426   -0.540066
 N 0.836913 0.563552 0.854428   -0.53411
 N 0.139503 0.178572 0.547442   -0.529707
 N 0.139509 0.678579 0.547445   -0.526339
 N 0.695052 0.117289 0.533296   -0.548957
 N 0.695055 0.617294 0.533293   -0.548274
 N 0.380817 0.02836 0.0   -0.326129
 N 0.38081 0.528366 0.0   -0.316986
 N 0.337956 0.313235 0.645466   -0.53397
 N 0.337969 0.813235 0.645467   -0.52852
 N 0.638556 0.428025 0.952526   -0.519003
 N 0.638564 0.928037 0.952522   -0.567848
 N 0.194502 0.366035 0.0   -0.551773
 N 0.194513 0.866043 0.0   -0.564258
 N 0.880952 0.470725 0.040699   -0.520443
 N 0.880959 0.970733 0.040697   -0.54655
 N 0.837742 0.187554 0.355042   -0.536283
 N 0.837746 0.687557 0.355041   -0.533589
 N 0.138488 0.071467 0.047075   -0.503073
 N 0.138479 0.571476 0.047069   -0.499104
 N 0.694155 0.132742 0.032779   -0.533112
 N 0.694149 0.632748 0.032785   -0.559451
