#{'_ref': 'TBD', '_srcid': 'CAKYAQ_clean', 'submitters': [{'name': 'Dalar Nazarian Jeff Camp and David Sholl', 'email': 'dalar@gatech.edu jcamp6@gatech.edu'}], '_method': 'VASP DFT with PBE;DDEC'}
data_ZnH12C23BrN3O4
_symmetry_space_group_name_H-M   'P 1'
_cell_length_a   11.09200033
_cell_length_b   16.18300004
_cell_length_c   17.98700000
_cell_angle_alpha   90.00400076
_cell_angle_beta   91.26500056
_cell_angle_gamma   90.00000017
_symmetry_Int_Tables_number   1
_chemical_formula_structural   ZnH12C23BrN3O4
_chemical_formula_sum   'Zn2 H24 C46 Br2 N6 O8'
_cell_volume   3227.9127251
_cell_formula_units_Z   2
loop_
 _symmetry_equiv_pos_site_id
 _symmetry_equiv_pos_as_xyz
  1  'x, y, z'
loop_
 _atom_site_label
 _atom_site_fract_x
 _atom_site_fract_y
 _atom_site_fract_z
 _atom_site_charge
 Zn 0.99507 0.999995 0.924044   0.864472
 Zn 0.004936 2.0000000021e-06 0.075954   0.863727
 H 0.74516 0.798508 0.881289   0.103708
 H 0.766226 0.793962 0.119377   0.103379
 H 0.648908 0.661999 0.12013   0.111695
 H 0.62711 0.66687 0.881103   0.109975
 H 0.254702 0.79853 0.118702   0.104021
 H 0.233932 0.793928 0.880608   0.102909
 H 0.351254 0.661966 0.87992   0.110873
 H 0.3728 0.66691 0.118952   0.110837
 H 0.254712 0.201504 0.118707   0.104021
 H 0.233922 0.206071 0.880614   0.10298
 H 0.351242 0.338034 0.879926   0.110909
 H 0.372808 0.333124 0.118958   0.110885
 H 0.745166 0.201488 0.881295   0.103692
 H 0.766218 0.206071 0.119384   0.103388
 H 0.648898 0.338034 0.120136   0.111673
 H 0.627116 0.333125 0.881109   0.109994
 H 0.181894 0.999997 0.808109   0.12127
 H 0.809148 0.999982 0.801008   0.120494
 H 0.192194 0.999987 0.6681   0.136975
 H 0.802804 0.999992 0.660705   0.137247
 H 0.818124 1.30000000027e-05 0.191892   0.12119
 H 0.190866 0.999999 0.198995   0.120596
 H 0.807828 6.9999999965e-06 0.331901   0.136814
 H 0.197202 0.99999 0.339298   0.137177
 C 0.762268 0.804266 0.000314000000003   -0.109778
 C 0.839058 0.880504 0.999764   0.66941
 C 0.563668 0.576056 0.0   -0.012958
 C 0.630562 0.655897 0.0   0.091964
 C 0.722414 0.768392 0.933267   -0.040976
 C 0.734352 0.765823 0.067576   -0.040222
 C 0.669126 0.692343 0.067724   -0.167552
 C 0.65693 0.695043 0.933425   -0.161542
 C 0.237732 0.80426 0.999672   -0.109867
 C 0.160928 0.880486 0.0   0.669291
 C 0.436364 0.576061 0.999539   -0.014815
 C 0.369476 0.655905 0.999421   0.092435
 C 0.27753 0.768407 0.066738   -0.040411
 C 0.265746 0.765804 0.932427   -0.040299
 C 0.330964 0.69232 0.932313   -0.166013
 C 0.343018 0.695059 0.066615   -0.163487
 C 0.23773 0.19576 0.999677   -0.109565
 C 0.16093 0.119526 0.0   0.669121
 C 0.436362 0.423959 0.999543   -0.014523
 C 0.369474 0.344115 0.999427   0.092278
 C 0.277534 0.231621 0.066744   -0.040793
 C 0.265738 0.234201 0.932433   -0.040461
 C 0.330956 0.307686 0.932319   -0.166044
 C 0.343022 0.304969 0.066621   -0.163365
 C 0.762268 0.195753 0.000320000000002   -0.109959
 C 0.83906 0.119515 0.999769   0.669514
 C 0.563668 0.423956 0.0   -0.013275
 C 0.630562 0.344114 0.0   0.091946
 C 0.722418 0.231611 0.933273   -0.041019
 C 0.734348 0.234204 0.067582   -0.04032
 C 0.66912 0.307684 0.067731   -0.167294
 C 0.656932 0.304959 0.933431   -0.161502
 C 0.100778 0.999974 0.772777   0.126847
 C 0.89125 3.999999997e-06 0.768794   0.126726
 C 0.105878 1.49999999977e-05 0.695673   -0.170011
 C 0.997666 2.80000000004e-05 0.653774   0.03906
 C 0.888302 0.999968 0.691529   -0.171782
 C 0.998894 0.99997 0.571794   0.337214
 C 0.899242 0.999994 0.227223   0.127123
 C 0.108762 1.60000000022e-05 0.231207   0.126768
 C 0.894144 3.09999999999e-05 0.304327   -0.169898
 C 0.002342 1.90000000018e-05 0.346226   0.038668
 C 0.111706 0.999965 0.308472   -0.171779
 C 0.001116 0.999947 0.428206   0.337331
 C 0.624434 0.500009 0.000996000000001   0.026804
 C 0.3756 0.500007 0.999087   0.02777
 Br 0.797942 0.500005 0.0   -0.077544
 Br 0.20209 0.500011 0.998737   -0.077057
 N 0.995466 0.999979 0.808661   -0.224021
 N 0.107522 0.999957 0.538905   -0.175328
 N 0.891352 1.69999999997e-05 0.534692   -0.175267
 N 0.004548 0.999988 0.191338   -0.223576
 N 0.892498 0.999988 0.461092   -0.17511
 N 0.108662 0.999989 0.465305   -0.175103
 O 0.86552 0.909832 0.936393   -0.587507
 O 0.874614 0.909254 0.062521   -0.590717
 O 0.134472 0.909845 0.06357   -0.588765
 O 0.125418 0.90924 0.937444   -0.589392
 O 0.134476 0.090178 0.063572   -0.588753
 O 0.12542 0.090767 0.937445   -0.589243
 O 0.865524 0.090176 0.936395   -0.587451
 O 0.874616 0.09077 0.062524   -0.590829
