#{'_ref': 'TBD', '_srcid': 'CAKYAQ_clean', 'submitters': [{'name': 'Dalar Nazarian Jeff Camp and David Sholl', 'email': 'dalar@gatech.edu jcamp6@gatech.edu'}], '_method': 'VASP DFT with PBE;DDEC'}
data_Ca2FeH16C12(N5O)2
_symmetry_space_group_name_H-M   'P 1'
_cell_length_a   8.83549973
_cell_length_b   8.83549958
_cell_length_c   13.70300000
_cell_angle_alpha   95.65299774
_cell_angle_beta   95.66099986
_cell_angle_gamma   92.62999894
_symmetry_Int_Tables_number   1
_chemical_formula_structural   Ca2FeH16C12(N5O)2
_chemical_formula_sum   'Ca4 Fe2 H32 C24 N20 O4'
_cell_volume   1057.67371116
_cell_formula_units_Z   2
loop_
 _symmetry_equiv_pos_site_id
 _symmetry_equiv_pos_as_xyz
  1  'x, y, z'
loop_
 _atom_site_label
 _atom_site_fract_x
 _atom_site_fract_y
 _atom_site_fract_z
 _atom_site_charge
 Ca 0.475588 0.151498 0.396377   1.495184
 Ca 0.848486 0.52437 0.103637   1.495301
 Ca 0.524326 0.848462 0.603631   1.495337
 Ca 0.151438 0.47558 0.89637   1.495158
 Fe 0.999968 0.499976 0.500005   -0.817043
 Fe 0.49995 0.999964 0.0   -0.816956
 H 0.588202 0.544864 0.423851   0.082201
 H 0.383764 0.53955 0.417746   0.08264
 H 0.233372 0.389448 0.284779   0.098185
 H 0.325502 0.282536 0.191677   0.090805
 H 0.337424 0.760652 0.206784   0.102832
 H 0.598824 0.289898 0.19995   0.087764
 H 0.315672 0.10423 0.55807   0.432362
 H 0.473192 0.183618 0.614072   0.307523
 H 0.455148 0.411788 0.076137   0.082241
 H 0.460466 0.616234 0.082226   0.082716
 H 0.610552 0.766622 0.215184   0.098121
 H 0.717478 0.674512 0.308312   0.090842
 H 0.239336 0.662594 0.293148   0.102642
 H 0.710106 0.401188 0.300074   0.087695
 H 0.89579 0.684292 0.941879   0.432358
 H 0.816322 0.526754 0.885964   0.307503
 H 0.411724 0.455096 0.576161   0.08212
 H 0.616158 0.46042 0.582265   0.082542
 H 0.766544 0.610524 0.715231   0.098321
 H 0.674416 0.717432 0.808331   0.090682
 H 0.662512 0.239318 0.793227   0.102938
 H 0.40109 0.710056 0.800059   0.087802
 H 0.684272 0.895752 0.441944   0.432392
 H 0.526754 0.816358 0.385941   0.30737
 H 0.544774 0.588172 0.923873   0.08199
 H 0.539466 0.38373 0.917784   0.082659
 H 0.389382 0.233336 0.784826   0.098198
 H 0.282456 0.325444 0.6917   0.090669
 H 0.760594 0.337378 0.706863   0.102651
 H 0.289816 0.598766 0.699939   0.087901
 H 0.104154 0.31569 0.058133   0.432525
 H 0.183618 0.473234 0.11405   0.307446
 C 0.833062 0.353868 0.477464   0.323563
 C 0.97499 0.530892 0.364143   0.317564
 C 0.141222 0.351576 0.469093   0.324681
 C 0.4818 0.537258 0.37469   0.06397
 C 0.331682 0.38794 0.241794   0.053797
 C 0.646084 0.166884 0.022565   0.323938
 C 0.469074 0.02497 0.135874   0.317481
 C 0.64838 0.858708 0.030907   0.324778
 C 0.46275 0.51819 0.125285   0.063761
 C 0.61207 0.668326 0.258186   0.054036
 C 0.16685 0.646082 0.522545   0.323847
 C 0.024924 0.469054 0.635866   0.317514
 C 0.858688 0.648372 0.530917   0.324726
 C 0.518124 0.462708 0.625324   0.064095
 C 0.668234 0.612026 0.758215   0.053811
 C 0.353828 0.833066 0.977446   0.323151
 C 0.530832 0.974984 0.864138   0.31759
 C 0.35153 0.14124 0.969105   0.324415
 C 0.537174 0.481772 0.874723   0.064346
 C 0.387862 0.331638 0.741826   0.053981
 C 0.33752 0.66248 0.249974   0.033383
 C 0.60514 0.394868 0.250006   0.090776
 C 0.662412 0.337492 0.750037   0.033455
 C 0.394786 0.605086 0.750005   0.090748
 N 0.722016 0.270858 0.462656   -0.675577
 N 0.957448 0.546004 0.2787   -0.675877
 N 0.235974 0.266968 0.4474   -0.691166
 N 0.473394 0.393572 0.309046   -0.40797
 N 0.480238 0.671272 0.317311   -0.187834
 N 0.72914 0.277896 0.037392   -0.675952
 N 0.45399 0.042554 0.221317   -0.675711
 N 0.732968 0.763924 0.052588   -0.69139
 N 0.606426 0.526608 0.190955   -0.407918
 N 0.328738 0.519764 0.18265   -0.187691
 N 0.277894 0.729094 0.537352   -0.675874
 N 0.04247 0.453938 0.721308   -0.675757
 N 0.763938 0.732982 0.552611   -0.691272
 N 0.526526 0.6064 0.690962   -0.40825
 N 0.519694 0.328692 0.682699   -0.187815
 N 0.270774 0.722052 0.962616   -0.675208
 N 0.545912 0.957402 0.778694   -0.675947
 N 0.266944 0.236026 0.947423   -0.69103
 N 0.393494 0.47335 0.809059   -0.408013
 N 0.671194 0.480206 0.817363   -0.188101
 O 0.425034 0.088096 0.566385   -0.878205
 O 0.911882 0.574924 0.93361   -0.878034
 O 0.57491 0.91188 0.433625   -0.878065
 O 0.08806 0.425058 0.066401   -0.878363
