#{'_ref': 'TBD', '_srcid': 'CAKYAQ_clean', 'submitters': [{'name': 'Dalar Nazarian Jeff Camp and David Sholl', 'email': 'dalar@gatech.edu jcamp6@gatech.edu'}], '_method': 'VASP DFT with PBE;DDEC'}
data_Zn5H6C20(NO2)8
_symmetry_space_group_name_H-M   'P 1'
_cell_length_a   14.17199964
_cell_length_b   15.00000000
_cell_length_c   15.36799955
_cell_angle_alpha   90.09700171
_cell_angle_beta   90.01499915
_cell_angle_gamma   90.03499927
_symmetry_Int_Tables_number   1
_chemical_formula_structural   Zn5H6C20(NO2)8
_chemical_formula_sum   'Zn20 H24 C80 N32 O64'
_cell_volume   3266.9238591
_cell_formula_units_Z   4
loop_
 _symmetry_equiv_pos_site_id
 _symmetry_equiv_pos_as_xyz
  1  'x, y, z'
loop_
 _atom_site_label
 _atom_site_fract_x
 _atom_site_fract_y
 _atom_site_fract_z
 _atom_site_charge
 Zn 0.387416 0.304482 0.539812   0.9504
 Zn 0.374188 0.707059 0.566461   0.953283
 Zn 0.111248 0.804598 0.462185   0.947462
 Zn 0.127247 0.206906 0.432931   0.952607
 Zn 0.612804 0.195596 0.03946   0.949297
 Zn 0.6259 0.792988 0.066539   0.953702
 Zn 0.889224 0.695644 0.960345   0.949349
 Zn 0.872702 0.292958 0.93301   0.952245
 Zn 0.6126 0.695576 0.460071   0.950221
 Zn 0.625855 0.292973 0.433434   0.953453
 Zn 0.889239 0.195557 0.537584   0.947957
 Zn 0.87303 0.793113 0.566705   0.953346
 Zn 0.387278 0.804392 0.960331   0.950683
 Zn 0.374178 0.207027 0.933356   0.952345
 Zn 0.110761 0.304458 0.037748   0.946722
 Zn 0.127287 0.707029 0.0668   0.954007
 Zn 6.49999999993e-05 0.499972 0.499987   1.155059
 Zn 0.500985 0.999871 0.499821   1.151992
 Zn 7.39999999979e-05 0.99993 0.999993   1.152541
 Zn 0.50052 0.499949 0.999982   1.151228
 H 0.284269 0.267976 0.735893   0.100732
 H 0.444018 0.503925 0.592034   0.101761
 H 0.704925 0.183023 0.865994   0.366492
 H 0.216799 0.768536 0.265411   0.096946
 H 0.056063 0.003642 0.407816   0.102092
 H 0.79659 0.683554 0.133548   0.366972
 H 0.716248 0.232428 0.235491   0.100899
 H 0.556329 0.996231 0.091914   0.102975
 H 0.295256 0.314404 0.366219   0.366022
 H 0.784885 0.73214 0.764589   0.100762
 H 0.944542 0.496364 0.907442   0.101816
 H 0.205478 0.814679 0.633525   0.365937
 H 0.715996 0.731886 0.263868   0.100574
 H 0.556173 0.496188 0.407905   0.101995
 H 0.295333 0.816947 0.133818   0.366086
 H 0.783638 0.231366 0.734142   0.100097
 H 0.94504 0.996232 0.591172   0.102355
 H 0.203755 0.316584 0.866344   0.36618
 H 0.283869 0.767324 0.76457   0.100425
 H 0.443967 0.003789 0.907872   0.101757
 H 0.704821 0.685604 0.633582   0.366138
 H 0.216288 0.268271 0.233574   0.096868
 H 0.055461 0.503751 0.091322   0.10342
 H 0.796274 0.185681 0.366437   0.365469
 C 0.502699 0.219886 0.77382   -0.027217
 C 0.504399 0.246083 0.686264   0.039692
 C 0.359806 0.256251 0.735763   0.270399
 C 0.573361 0.193258 0.836873   0.626896
 C 0.57838 0.248506 0.616921   0.619262
 C 0.242702 0.45894 0.5044   -0.002621
 C 0.238666 0.55172 0.51547   -0.009926
 C 0.373906 0.504213 0.563542   0.231822
 C 0.176029 0.395017 0.464666   0.667459
 C 0.16613 0.61815 0.491438   0.649224
 C 0.0 0.720056 0.226527   -0.036559
 C 0.0 0.746228 0.314226   0.04292
 C 0.14128 0.756694 0.265219   0.259133
 C 0.92822 0.693405 0.163125   0.627067
 C 0.92267 0.748427 0.383552   0.61112
 C 0.257533 0.958992 0.495023   -0.003853
 C 0.261845 0.05169 0.483562   -0.010734
 C 0.126256 0.004001 0.436134   0.232317
 C 0.324035 0.895215 0.534852   0.668662
 C 0.334003 0.118673 0.507359   0.649764
 C 0.497602 0.279107 0.274044   -0.027569
 C 0.495888 0.253256 0.186371   0.03821
 C 0.640644 0.243741 0.235564   0.269768
 C 0.426758 0.305276 0.337109   0.626957
 C 0.421661 0.251169 0.11729   0.619084
 C 0.757597 0.04082 0.0   -0.015239
 C 0.761721 0.948096 0.015523   -0.001002
 C 0.626436 0.995816 0.063443   0.23592
 C 0.824184 0.104662 0.964545   0.674248
 C 0.834117 0.881494 0.991352   0.644942
 C 0.003258 0.779826 0.725891   -0.024795
 C 0.005334 0.753321 0.813299   0.037939
 C 0.860461 0.743707 0.764404   0.270223
 C 0.074086 0.806739 0.663196   0.62766
 C 0.079822 0.751216 0.882212   0.620005
 C 0.743447 0.541273 0.995325   -0.001631
 C 0.739053 0.448532 0.983746   -0.012148
 C 0.874471 0.496075 0.935977   0.232548
 C 0.676925 0.605078 0.035236   0.665804
 C 0.666956 0.381495 0.007519   0.648937
 C 0.497557 0.779952 0.225937   -0.026567
 C 0.495872 0.753697 0.31345   0.039346
 C 0.640459 0.743599 0.264022   0.27087
 C 0.426847 0.80669 0.162958   0.627317
 C 0.421714 0.751332 0.382559   0.618105
 C 0.757459 0.541118 0.495638   -0.00396
 C 0.761466 0.448327 0.484551   -0.01015
 C 0.626271 0.495879 0.43643   0.23138
 C 0.824193 0.605008 0.535354   0.66812
 C 0.833963 0.381859 0.50859   0.649288
 C 0.001714 0.279985 0.773324   -0.028173
 C 0.003929 0.253772 0.68568   0.038437
 C 0.859151 0.243275 0.734445   0.27031
 C 0.072049 0.306649 0.836662   0.628175
 C 0.078227 0.251578 0.616654   0.618189
 C 0.743711 0.041062 0.503727   -0.00285
 C 0.739241 0.948381 0.515282   -0.01164
 C 0.874863 0.995962 0.562824   0.233247
 C 0.677054 0.104985 0.464347   0.667615
 C 0.667 0.881458 0.491467   0.647047
 C 0.502511 0.720916 0.725787   -0.02817
 C 0.504276 0.746747 0.813464   0.039289
 C 0.359476 0.7561 0.764398   0.270386
 C 0.573318 0.694785 0.66271   0.628095
 C 0.578573 0.748875 0.882464   0.619631
 C 0.242705 0.959123 0.995495   -0.004003
 C 0.238565 0.051829 0.984283   -0.009681
 C 0.373857 0.004177 0.936334   0.232654
 C 0.176157 0.895262 0.035233   0.667342
 C 0.166099 0.118363 0.008371   0.648339
 C 0.0 0.220713 0.273343   -0.039882
 C 0.0 0.246942 0.185871   0.045872
 C 0.140714 0.256712 0.234117   0.253534
 C 0.927814 0.194251 0.336523   0.625291
 C 0.92068 0.248862 0.117394   0.608284
 C 0.256979 0.458851 0.0   -0.013737
 C 0.261421 0.551551 0.016075   -0.0019
 C 0.125687 0.504035 0.063111   0.235949
 C 0.323559 0.395037 0.964569   0.672214
 C 0.333645 0.618537 0.992555   0.647056
 N 0.410548 0.226746 0.803807   -0.411191
 N 0.413763 0.269056 0.664429   -0.406399
 N 0.329363 0.430137 0.535341   -0.381586
 N 0.322892 0.579071 0.552289   -0.382736
 N 0.090848 0.727103 0.196844   -0.403991
 N 0.087073 0.769376 0.336431   -0.388919
 N 0.170677 0.930135 0.464516   -0.379576
 N 0.177525 0.078867 0.446967   -0.382444
 N 0.589839 0.272763 0.303867   -0.410969
 N 0.586609 0.230893 0.164203   -0.404268
 N 0.670922 0.06975 0.035095   -0.385682
 N 0.677496 0.920921 0.052357   -0.382728
 N 0.910913 0.773414 0.696203   -0.412558
 N 0.914756 0.730536 0.835482   -0.405763
 N 0.83022 0.57007 0.964625   -0.382451
 N 0.823174 0.421306 0.946823   -0.381678
 N 0.589717 0.773136 0.195982   -0.411483
 N 0.586484 0.730737 0.33534   -0.405964
 N 0.670818 0.569945 0.464663   -0.381625
 N 0.677254 0.421002 0.447689   -0.381414
 N 0.909402 0.272927 0.802895   -0.411909
 N 0.913523 0.230573 0.66331   -0.403607
 N 0.830553 0.069855 0.534284   -0.380157
 N 0.823443 0.921187 0.552068   -0.383237
 N 0.410236 0.727178 0.696035   -0.410896
 N 0.413569 0.768996 0.835703   -0.405806
 N 0.329379 0.930227 0.964648   -0.382236
 N 0.322772 0.079051 0.947448   -0.382657
 N 0.090649 0.22719 0.302648   -0.40041
 N 0.086037 0.269716 0.1632   -0.385396
 N 0.170015 0.430077 0.034524   -0.385181
 N 0.177112 0.578796 0.052648   -0.383117
 O 0.547324 0.167548 0.910907   -0.559914
 O 0.662577 0.199175 0.814492   -0.457328
 O 0.658545 0.218349 0.627051   -0.526805
 O 0.546675 0.28493 0.5442   -0.629894
 O 0.211787 0.323917 0.432034   -0.568669
 O 0.087309 0.405909 0.463126   -0.611314
 O 0.086663 0.595258 0.459499   -0.618534
 O 0.189147 0.699192 0.503874   -0.558481
 O 0.95456 0.667817 0.089032   -0.561265
 O 0.838897 0.699187 0.185279   -0.458214
 O 0.842393 0.718513 0.373266   -0.522965
 O 0.954393 0.784455 0.456766   -0.629655
 O 0.288296 0.823936 0.566988   -0.570395
 O 0.412725 0.906505 0.536959   -0.613064
 O 0.414709 0.097106 0.537218   -0.616605
 O 0.309272 0.199558 0.49681   -0.559319
 O 0.452587 0.332492 0.410779   -0.560187
 O 0.337584 0.297214 0.315046   -0.455451
 O 0.341603 0.281395 0.128068   -0.526452
 O 0.453132 0.215137 0.044208   -0.630381
 O 0.788348 0.175589 0.931815   -0.569987
 O 0.91292 0.093908 0.963116   -0.611183
 O 0.9137 0.904077 0.959567   -0.616403
 O 0.810934 0.800477 0.00344   -0.556601
 O 0.048438 0.835759 0.590243   -0.56075
 O 0.163276 0.797311 0.684701   -0.456783
 O 0.159908 0.781378 0.871115   -0.528214
 O 0.048591 0.7153 0.955346   -0.629755
 O 0.712442 0.676341 0.067787   -0.568918
 O 0.588268 0.593719 0.036983   -0.611109
 O 0.586484 0.40316 0.037871   -0.615491
 O 0.691266 0.300556 0.996446   -0.558401
 O 0.452843 0.832471 0.08894   -0.560816
 O 0.337633 0.80082 0.185358   -0.455645
 O 0.341565 0.781306 0.371816   -0.524965
 O 0.453241 0.715229 0.455525   -0.630101
 O 0.788545 0.676176 0.567986   -0.56952
 O 0.912888 0.594037 0.536915   -0.611179
 O 0.913459 0.404698 0.540495   -0.61848
 O 0.810897 0.300819 0.496194   -0.558109
 O 0.045529 0.332322 0.910714   -0.56118
 O 0.161375 0.300831 0.814675   -0.456878
 O 0.158439 0.281561 0.627327   -0.526695
 O 0.046751 0.215517 0.543462   -0.629017
 O 0.712401 0.176316 0.432058   -0.568651
 O 0.588376 0.093717 0.462947   -0.611562
 O 0.58691 0.903291 0.460346   -0.615602
 O 0.690937 0.800544 0.503205   -0.558986
 O 0.547453 0.667664 0.589006   -0.560043
 O 0.662505 0.702744 0.68478   -0.457356
 O 0.65863 0.718721 0.871453   -0.527967
 O 0.547129 0.784825 0.955599   -0.630227
 O 0.212087 0.824301 0.067796   -0.568953
 O 0.087418 0.906027 0.036818   -0.610402
 O 0.086582 0.095735 0.040253   -0.617612
 O 0.189211 0.199363 0.996058   -0.557244
 O 0.954139 0.166449 0.409787   -0.560345
 O 0.838517 0.202722 0.315194   -0.455413
 O 0.84069 0.218602 0.128829   -0.523747
 O 0.95146 0.284796 0.044118   -0.628641
 O 0.287949 0.323787 0.931955   -0.569896
 O 0.412227 0.406322 0.962991   -0.612863
 O 0.414322 0.596938 0.962612   -0.614882
 O 0.309077 0.699447 0.003396   -0.558523
