#{'_ref': 'TBD', '_srcid': 'CAKYAQ_clean', 'submitters': [{'name': 'Dalar Nazarian Jeff Camp and David Sholl', 'email': 'dalar@gatech.edu jcamp6@gatech.edu'}], '_method': 'VASP DFT with PBE;DDEC'}
data_Cd2H8C12S(NO4)2
_symmetry_space_group_name_H-M   'P 1'
_cell_length_a   10.14299976
_cell_length_b   12.81600000
_cell_length_c   12.82599961
_cell_angle_alpha   81.09599997
_cell_angle_beta   66.76300068
_cell_angle_gamma   66.78899674
_symmetry_Int_Tables_number   1
_chemical_formula_structural   Cd2H8C12S(NO4)2
_chemical_formula_sum   'Cd4 H16 C24 S2 N4 O16'
_cell_volume   1408.0330389
_cell_formula_units_Z   2
loop_
 _symmetry_equiv_pos_site_id
 _symmetry_equiv_pos_as_xyz
  1  'x, y, z'
loop_
 _atom_site_label
 _atom_site_fract_x
 _atom_site_fract_y
 _atom_site_fract_z
 _atom_site_charge
 Cd 0.113004 0.451055 0.322428   1.073962
 Cd 0.886954 0.548922 0.677577   1.074027
 Cd 0.563832 0.322566 0.549041   1.074726
 Cd 0.43612 0.677414 0.450967   1.074745
 H 0.384704 0.2583 0.381837   0.100934
 H 0.47889 0.049695 0.417741   0.139384
 H 0.026792 0.741921 0.615029   0.099291
 H 0.947506 0.950631 0.57988   0.138547
 H 0.642434 0.383249 0.74199   0.100418
 H 0.528364 0.418522 0.950692   0.139768
 H 0.76801 0.615861 0.258138   0.100917
 H 0.897478 0.580191 0.04966   0.138785
 H 0.615244 0.741678 0.618181   0.101185
 H 0.521058 0.950281 0.582271   0.13935
 H 0.97315 0.258064 0.385002   0.099241
 H 0.052438 0.049352 0.420131   0.138462
 H 0.357506 0.616746 0.258017   0.100486
 H 0.471582 0.581452 0.049319   0.13966
 H 0.231942 0.384112 0.741869   0.100949
 H 0.102478 0.419762 0.950352   0.138923
 C 0.315696 0.208625 0.389124   0.149024
 C 0.367212 0.09256 0.409576   -0.14493
 C 0.914676 0.791475 0.609187   0.150823
 C 0.870236 0.90759 0.58897   -0.145955
 C 0.524102 0.389989 0.79156   0.153444
 C 0.459714 0.410235 0.907635   -0.147427
 C 0.705698 0.609458 0.208537   0.149965
 C 0.777358 0.589086 0.092484   -0.146685
 C 0.684258 0.791352 0.610885   0.14866
 C 0.632732 0.90742 0.590443   -0.144789
 C 0.085276 0.208506 0.390821   0.150669
 C 0.129706 0.092393 0.411047   -0.145848
 C 0.475848 0.609983 0.20845   0.153387
 C 0.540234 0.589744 0.092374   -0.146931
 C 0.294258 0.390501 0.791474   0.149474
 C 0.222594 0.41088 0.907526   -0.146688
 C 0.273644 0.0325 0.419975   0.015683
 C 0.32735 0.906102 0.438988   0.602276
 C 0.726296 0.967481 0.580046   0.015471
 C 0.672598 0.093878 0.561017   0.602349
 C 0.306408 0.420252 0.967537   0.01799
 C 0.23391 0.439298 0.093869   0.6016
 C 0.693538 0.57973 0.03247   0.017665
 C 0.766042 0.560665 0.906141   0.60136
 S 0.750034 0.499935 0.500025   1.510629
 S 0.249926 0.500042 0.499977   1.510137
 N 0.17726 0.265935 0.378963   -0.37125
 N 0.822696 0.734043 0.621039   -0.371228
 N 0.443262 0.379267 0.734149   -0.375216
 N 0.556692 0.620699 0.265861   -0.375686
 O 0.459392 0.855102 0.446785   -0.586565
 O 0.855224 0.551075 0.408871   -0.695
 O 0.760038 0.145527 0.555239   -0.586564
 O 0.814992 0.448773 0.591274   -0.694854
 O 0.31604 0.444198 0.145482   -0.585929
 O 0.406042 0.40873 0.448851   -0.695593
 O 0.90627 0.551997 0.855134   -0.586878
 O 0.263994 0.591338 0.551209   -0.694328
 O 0.540544 0.144879 0.553241   -0.586693
 O 0.14474 0.448897 0.591129   -0.694931
 O 0.239908 0.854453 0.444767   -0.586603
 O 0.184966 0.551204 0.408729   -0.694697
 O 0.68391 0.555778 0.854524   -0.58583
 O 0.593922 0.591251 0.551148   -0.695917
 O 0.09368 0.447974 0.144875   -0.58703
 O 0.73596 0.408641 0.448796   -0.694319
