#{'_ref': 'TBD', '_srcid': 'CAKYAQ_clean', 'submitters': [{'name': 'Dalar Nazarian Jeff Camp and David Sholl', 'email': 'dalar@gatech.edu jcamp6@gatech.edu'}], '_method': 'VASP DFT with PBE;DDEC'}
data_ZnH8C15S2NO4
_symmetry_space_group_name_H-M   'P 1'
_cell_length_a   13.95799954
_cell_length_b   14.28300013
_cell_length_c   14.29200000
_cell_angle_alpha   95.04700043
_cell_angle_beta   106.52299960
_cell_angle_gamma   107.07799917
_symmetry_Int_Tables_number   1
_chemical_formula_structural   ZnH8C15S2NO4
_chemical_formula_sum   'Zn4 H32 C60 S8 N4 O16'
_cell_volume   2565.04842555
_cell_formula_units_Z   4
loop_
 _symmetry_equiv_pos_site_id
 _symmetry_equiv_pos_as_xyz
  1  'x, y, z'
loop_
 _atom_site_label
 _atom_site_fract_x
 _atom_site_fract_y
 _atom_site_fract_z
 _atom_site_charge
 Zn 0.140666 0.127233 0.839226   0.884008
 Zn 0.360738 0.161978 0.872345   0.882467
 Zn 0.859331 0.872755 0.16077   0.884918
 Zn 0.639261 0.838019 0.127651   0.882785
 H 0.452767 0.688407 0.910119   0.134751
 H 0.483935 0.516121 0.914734   0.127666
 H 0.034177 0.776969 0.840026   0.119439
 H 0.072875 0.608307 0.858167   0.130288
 H 0.783964 0.186397 0.710071   0.13686
 H 0.955479 0.169699 0.702869   0.112895
 H 0.015211 0.07762 0.973729   0.096635
 H 0.84532 0.084842 0.990894   0.134652
 H 0.04898 0.090262 0.31434   0.134977
 H 0.01837 0.08593 0.487061   0.126549
 H 0.466416 0.161372 0.220801   0.118495
 H 0.428691 0.144502 0.390251   0.130362
 H 0.719099 0.290156 0.812541   0.137727
 H 0.547565 0.297934 0.828883   0.113353
 H 0.484197 0.027274 0.922884   0.094831
 H 0.653992 0.009589 0.916076   0.134353
 H 0.547233 0.311582 0.089875   0.134524
 H 0.516062 0.483866 0.085261   0.12746
 H 0.965825 0.223023 0.159972   0.119631
 H 0.927128 0.391686 0.141832   0.13018
 H 0.216045 0.813613 0.289934   0.13707
 H 0.044525 0.830301 0.297132   0.114257
 H 0.0 0.922361 0.026262   0.089317
 H 0.154678 0.915148 0.009101   0.135796
 H 0.95102 0.909729 0.685656   0.134858
 H 0.98163 0.914062 0.512934   0.126368
 H 0.533584 0.838618 0.779195   0.118234
 H 0.57131 0.855493 0.609746   0.130061
 H 0.280902 0.709841 0.187461   0.137595
 H 0.452437 0.702062 0.171122   0.113371
 H 0.515799 0.972713 0.077104   0.094759
 H 0.346003 0.990399 0.083908   0.133934
 C 0.208262 0.949793 0.842239   0.668132
 C 0.297942 0.337782 0.87194   0.682563
 C 0.313692 0.445014 0.875802   -0.182367
 C 0.282214 0.60772 0.869569   -0.008985
 C 0.196349 0.843913 0.842777   -0.215015
 C 0.389066 0.617195 0.893602   -0.159069
 C 0.406375 0.524921 0.896793   -0.051159
 C 0.233872 0.684416 0.859379   0.015622
 C 0.109455 0.766815 0.844289   -0.047834
 C 0.130419 0.676911 0.853853   -0.183763
 C 0.832981 0.16231 0.770514   -0.210981
 C 0.927813 0.152994 0.76552   0.136717
 C 0.960317 0.099461 0.916419   0.141809
 C 0.865697 0.104693 0.925599   -0.198788
 C 0.800416 0.138418 0.852325   0.126255
 C 0.291553 0.156726 0.049629   0.668322
 C 0.20462 0.129784 0.663409   0.67987
 C 0.188609 0.12568 0.556298   -0.180072
 C 0.219545 0.131619 0.393135   -0.008465
 C 0.304086 0.157029 0.155519   -0.215256
 C 0.112798 0.107137 0.384872   -0.160424
 C 0.095804 0.104106 0.477385   -0.050753
 C 0.267502 0.141628 0.315789   0.015779
 C 0.391286 0.156727 0.231787   -0.046322
 C 0.370846 0.147843 0.322136   -0.183441
 C 0.669262 0.229874 0.837009   -0.214043
 C 0.574426 0.235194 0.84612   0.137851
 C 0.539896 0.084426 0.900735   0.140274
 C 0.634441 0.07494 0.895731   -0.197676
 C 0.700775 0.14798 0.861588   0.126663
 C 0.791737 0.050199 0.157755   0.667636
 C 0.702055 0.662209 0.128057   0.682961
 C 0.686305 0.554977 0.124193   -0.182409
 C 0.717786 0.392271 0.130424   -0.008807
 C 0.803652 0.156079 0.157217   -0.214048
 C 0.610933 0.382795 0.106392   -0.159487
 C 0.593623 0.475068 0.103201   -0.051122
 C 0.766129 0.315576 0.140615   0.01528
 C 0.890547 0.233177 0.155708   -0.047984
 C 0.869583 0.323081 0.146143   -0.183752
 C 0.167021 0.837688 0.229485   -0.210707
 C 0.072188 0.847002 0.234478   0.137981
 C 0.039678 0.900524 0.083574   0.16496
 C 0.134301 0.895296 0.074395   -0.214057
 C 0.199585 0.861577 0.147672   0.128423
 C 0.708446 0.843262 0.950366   0.667997
 C 0.795379 0.870212 0.336588   0.680161
 C 0.811391 0.874317 0.443699   -0.180434
 C 0.780456 0.868375 0.606862   -0.007789
 C 0.695913 0.842959 0.844476   -0.213929
 C 0.887203 0.892856 0.615124   -0.160948
 C 0.904196 0.895888 0.522611   -0.050968
 C 0.732498 0.858364 0.684207   0.014945
 C 0.608714 0.843264 0.768209   -0.047405
 C 0.629155 0.85215 0.67786   -0.183417
 C 0.330741 0.770123 0.162995   -0.214253
 C 0.425575 0.764801 0.153882   0.137799
 C 0.460102 0.915564 0.099259   0.140172
 C 0.365557 0.925051 0.104262   -0.197712
 C 0.299226 0.852015 0.138409   0.125657
 S 0.304117 0.804223 0.85124   0.124297
 S 0.203915 0.48356 0.850864   0.089823
 S 0.196692 0.148254 0.196504   0.124048
 S 0.298115 0.151029 0.516477   0.089408
 S 0.695883 0.195768 0.148751   0.123519
 S 0.796083 0.516431 0.14913   0.089615
 S 0.803307 0.851736 0.803492   0.124548
 S 0.701885 0.848968 0.48352   0.089159
 N 0.991486 0.123193 0.838017   -0.272511
 N 0.509757 0.162914 0.876364   -0.270922
 N 0.008517 0.876806 0.161983   -0.276886
 N 0.490238 0.837074 0.123624   -0.270639
 O 0.127974 0.976567 0.839171   -0.576852
 O 0.380346 0.311488 0.893243   -0.575733
 O 0.30016 0.00698 0.847822   -0.588119
 O 0.20196 0.280136 0.8475   -0.590776
 O 0.371664 0.160563 0.021825   -0.57536
 O 0.12224 0.107196 0.690441   -0.57573
 O 0.199349 0.149677 0.993465   -0.588686
 O 0.300654 0.155689 0.720188   -0.58754
 O 0.872023 0.023423 0.160825   -0.575369
 O 0.619654 0.688506 0.106757   -0.576073
 O 0.699837 0.993014 0.152169   -0.588601
 O 0.798038 0.719853 0.152496   -0.591333
 O 0.628334 0.839423 0.978169   -0.576841
 O 0.877758 0.892792 0.309554   -0.576529
 O 0.80065 0.850313 0.00653   -0.587781
 O 0.699345 0.844313 0.27981   -0.587752
