#{'_ref': 'TBD', '_srcid': 'CAKYAQ_clean', 'submitters': [{'name': 'Dalar Nazarian Jeff Camp and David Sholl', 'email': 'dalar@gatech.edu jcamp6@gatech.edu'}], '_method': 'VASP DFT with PBE;DDEC'}
data_GaPH2CO3F
_symmetry_space_group_name_H-M   'P 1'
_cell_length_a   10.56300006
_cell_length_b   11.36500041
_cell_length_c   16.81600000
_cell_angle_alpha   98.43799997
_cell_angle_beta   95.50600138
_cell_angle_gamma   101.26900107
_symmetry_Int_Tables_number   1
_chemical_formula_structural   GaPH2CO3F
_chemical_formula_sum   'Ga16 P16 H32 C16 O48 F16'
_cell_volume   1942.15711468
_cell_formula_units_Z   16
loop_
 _symmetry_equiv_pos_site_id
 _symmetry_equiv_pos_as_xyz
  1  'x, y, z'
loop_
 _atom_site_label
 _atom_site_fract_x
 _atom_site_fract_y
 _atom_site_fract_z
 _atom_site_charge
 Ga 0.963045 0.740463 0.017365   1.702877
 Ga 0.978418 0.758792 0.507253   1.653382
 Ga 0.035359 0.234816 0.0   1.699698
 Ga 0.99921 0.236145 0.499392   1.765747
 Ga 0.53413 0.735374 0.980748   1.692564
 Ga 0.516351 0.719589 0.491848   1.642951
 Ga 0.462576 0.239778 0.013873   1.696866
 Ga 0.497788 0.239228 0.497468   1.765599
 Ga 0.746216 0.024806 0.978715   1.698982
 Ga 0.760671 0.961672 0.512792   1.670103
 Ga 0.751094 0.450472 0.018396   1.713186
 Ga 0.733575 0.514829 0.484101   1.676708
 Ga 0.251464 0.954842 0.023659   1.709373
 Ga 0.278063 0.95462 0.511487   1.716303
 Ga 0.247792 0.520592 0.975031   1.714304
 Ga 0.219772 0.520156 0.486483   1.71472
 P 0.750509 0.736854 0.615442   1.494299
 P 0.731748 0.709718 0.117725   1.544294
 P 0.756609 0.210845 0.613282   1.56326
 P 0.735532 0.233599 0.114236   1.548321
 P 0.227967 0.745501 0.617076   1.537699
 P 0.236114 0.728105 0.11339   1.551244
 P 0.259952 0.208427 0.609965   1.583967
 P 0.237657 0.218037 0.119268   1.541559
 P 0.765158 0.766129 0.880112   1.539699
 P 0.744446 0.740507 0.38267   1.492862
 P 0.762834 0.241834 0.882826   1.526211
 P 0.739847 0.265148 0.383934   1.563639
 P 0.261054 0.746727 0.884957   1.543518
 P 0.268109 0.728167 0.380745   1.532176
 P 0.261273 0.258199 0.877964   1.558434
 P 0.237495 0.266764 0.387102   1.587731
 H 0.912849 0.790812 0.729482   0.186256
 H 0.87183 0.77206 0.240629   0.175998
 H 0.904074 0.260677 0.73541   0.168695
 H 0.883719 0.271739 0.234963   0.166301
 H 0.387551 0.795 0.73266   0.178616
 H 0.390618 0.774117 0.23062   0.172003
 H 0.410357 0.254043 0.730335   0.160709
 H 0.378627 0.272696 0.242162   0.174819
 H 0.796808 0.884687 0.734638   0.188399
 H 0.750438 0.859135 0.235585   0.180253
 H 0.7981 0.362971 0.731154   0.165007
 H 0.781123 0.377113 0.234804   0.16716
 H 0.269231 0.885425 0.740883   0.174486
 H 0.269968 0.861293 0.239166   0.178246
 H 0.310426 0.361751 0.726936   0.167247
 H 0.274635 0.375901 0.232836   0.168262
 H 0.62578 0.701294 0.757219   0.17731
 H 0.584024 0.684429 0.267681   0.185218
 H 0.61366 0.203185 0.762619   0.164716
 H 0.592894 0.215337 0.261398   0.163665
 H 0.1056 0.701323 0.768093   0.170517
 H 0.10858 0.678616 0.265155   0.176655
 H 0.11935 0.204792 0.755487   0.169884
 H 0.087338 0.223736 0.266612   0.159995
 H 0.748968 0.616242 0.762684   0.182541
 H 0.70044 0.590895 0.264273   0.184992
 H 0.716847 0.098301 0.762238   0.163114
 H 0.698429 0.112763 0.266242   0.16585
 H 0.225348 0.61313 0.759261   0.17972
 H 0.227462 0.588802 0.256823   0.168328
 H 0.223002 0.101137 0.763989   0.162476
 H 0.186238 0.115141 0.269403   0.171642
 C 0.808212 0.790008 0.720674   -0.444561
 C 0.766891 0.765885 0.225322   -0.452375
 C 0.801799 0.265956 0.721362   -0.44098
 C 0.78191 0.27951 0.222445   -0.441424
 C 0.28226 0.791627 0.724561   -0.440602
 C 0.28493 0.768357 0.221754   -0.450288
 C 0.309358 0.263748 0.717284   -0.449792
 C 0.277032 0.278691 0.225792   -0.445221
 C 0.730959 0.708946 0.772655   -0.452521
 C 0.688682 0.685569 0.277339   -0.443676
 C 0.71567 0.195806 0.774764   -0.431161
 C 0.695032 0.209855 0.275775   -0.437324
 C 0.211175 0.70636 0.776599   -0.444948
 C 0.213941 0.682397 0.273335   -0.435867
 C 0.220968 0.198448 0.771374   -0.439728
 C 0.188078 0.213296 0.279588   -0.453156
 O 0.833778 0.825086 0.562176   -0.932635
 O 0.834342 0.789738 0.076841   -0.890036
 O 0.862016 0.275918 0.56823   -0.895002
 O 0.814939 0.334173 0.072939   -0.917586
 O 0.318475 0.828261 0.569398   -0.913375
 O 0.312148 0.834379 0.075833   -0.89968
 O 0.362223 0.279299 0.565168   -0.894247
 O 0.337399 0.294225 0.074072   -0.882521
 O 0.773397 0.607448 0.592905   -0.801211
 O 0.744935 0.575622 0.107561   -0.866648
 O 0.75542 0.069856 0.604903   -0.857161
 O 0.772856 0.110095 0.088449   -0.832415
 O 0.237656 0.611734 0.594476   -0.822127
 O 0.277977 0.607746 0.084817   -0.833897
 O 0.261093 0.069217 0.599494   -0.88226
 O 0.249644 0.083188 0.110146   -0.85362
 O 0.606703 0.743251 0.600558   -0.793916
 O 0.594077 0.728229 0.090208   -0.817379
 O 0.618819 0.232647 0.593132   -0.863761
 O 0.587039 0.224195 0.09814   -0.870787
 O 0.084463 0.761608 0.604593   -0.851684
 O 0.086623 0.714126 0.098529   -0.874775
 O 0.120215 0.229242 0.593529   -0.867072
 O 0.098772 0.235144 0.09253   -0.817486
 O 0.662394 0.685924 0.920752   -0.881094
 O 0.661952 0.652393 0.43626   -0.933754
 O 0.683471 0.141547 0.924257   -0.904699
 O 0.634927 0.199315 0.429073   -0.893058
 O 0.185565 0.640955 0.923205   -0.896406
 O 0.177658 0.645272 0.428182   -0.908745
 O 0.161497 0.181724 0.922959   -0.906289
 O 0.133934 0.195851 0.431109   -0.891373
 O 0.750277 0.899776 0.889361   -0.855608
 O 0.718293 0.868949 0.404219   -0.80056
 O 0.72628 0.365582 0.908638   -0.827394
 O 0.739765 0.405948 0.392312   -0.862137
 O 0.220222 0.867495 0.913785   -0.825089
 O 0.259698 0.862212 0.403505   -0.824422
 O 0.250655 0.393393 0.887997   -0.865978
 O 0.238419 0.406396 0.398941   -0.885862
 O 0.903574 0.750173 0.908324   -0.817749
 O 0.889232 0.738226 0.398492   -0.800224
 O 0.911333 0.250808 0.898624   -0.850828
 O 0.877867 0.244031 0.404091   -0.864858
 O 0.410495 0.759774 0.899052   -0.86832
 O 0.411371 0.711218 0.393168   -0.84871
 O 0.399907 0.239864 0.904212   -0.826562
 O 0.376807 0.244792 0.403003   -0.867782
 F 0.894936 0.563081 0.989667   -0.564992
 F 0.922282 0.584272 0.486502   -0.539659
 F 0.932745 0.070459 0.979286   -0.550431
 F 0.911164 0.054728 0.482835   -0.563538
 F 0.43304 0.570422 0.972164   -0.555796
 F 0.416218 0.57038 0.506962   -0.54329
 F 0.399996 0.060213 0.993149   -0.564225
 F 0.422699 0.059905 0.482785   -0.568278
 F 0.571683 0.894584 0.510296   -0.537193
 F 0.599926 0.914323 0.006951   -0.564208
 F 0.583562 0.420327 0.5137   -0.561692
 F 0.566099 0.40419 0.017299   -0.555629
 F 0.083136 0.905521 0.492838   -0.546038
 F 0.066599 0.904873 0.027758   -0.560778
 F 0.072246 0.415382 0.513716   -0.567067
 F 0.099173 0.414605 0.003626   -0.576138
