#{'_ref': 'TBD', '_srcid': 'CAKYAQ_clean', 'submitters': [{'name': 'Dalar Nazarian Jeff Camp and David Sholl', 'email': 'dalar@gatech.edu jcamp6@gatech.edu'}], '_method': 'VASP DFT with PBE;DDEC'}
data_CdH11C9N2ClO3
_symmetry_space_group_name_H-M   'P 1'
_cell_length_a   5.99600021
_cell_length_b   15.94700000
_cell_length_c   16.66199957
_cell_angle_alpha   90.00000000
_cell_angle_beta   90.01499965
_cell_angle_gamma   90.01500240
_symmetry_Int_Tables_number   1
_chemical_formula_structural   CdH11C9N2ClO3
_chemical_formula_sum   'Cd4 H44 C36 N8 Cl4 O12'
_cell_volume   1593.19055273
_cell_formula_units_Z   4
loop_
 _symmetry_equiv_pos_site_id
 _symmetry_equiv_pos_as_xyz
  1  'x, y, z'
loop_
 _atom_site_label
 _atom_site_fract_x
 _atom_site_fract_y
 _atom_site_fract_z
 _atom_site_charge
 Cd 0.371862 0.957539 0.398937   0.89026
 Cd 0.128138 0.457644 0.601035   0.889892
 Cd 0.628498 0.54289 0.898992   0.89074
 Cd 0.871532 0.042802 0.100967   0.887924
 H 0.457172 0.233364 0.603128   0.138119
 H 0.664762 0.363305 0.637492   0.084353
 H 0.194578 0.29724 0.491172   0.06845
 H 0.013434 0.161014 0.453208   0.129968
 H 0.791952 0.034432 0.431324   0.257401
 H 0.412728 0.11692 0.510308   0.084415
 H 0.633932 0.05902 0.551175   0.124547
 H 0.755654 0.168356 0.354917   0.100249
 H 0.399948 0.192734 0.286976   0.074384
 H 0.372038 0.203139 0.392584   0.0683
 H 0.201986 0.071686 0.291507   0.342536
 H 0.042852 0.733405 0.396794   0.13818
 H 0.835222 0.863295 0.362439   0.084181
 H 0.305426 0.797093 0.508756   0.068307
 H 0.486638 0.660916 0.546722   0.129844
 H 0.708146 0.534474 0.568686   0.257169
 H 0.087334 0.61696 0.489609   0.084394
 H 0.866068 0.558999 0.448809   0.124646
 H 0.74467 0.668468 0.645005   0.100148
 H 0.10043 0.692843 0.712945   0.074368
 H 0.12837 0.703176 0.607334   0.068074
 H 0.298098 0.571754 0.708485   0.342179
 H 0.543156 0.266779 0.103104   0.135688
 H 0.335158 0.136936 0.137416   0.084274
 H 0.805528 0.203261 0.991047   0.072501
 H 0.987066 0.339405 0.95313   0.112776
 H 0.2086 0.465914 0.931406   0.257818
 H 0.587896 0.383254 0.010253   0.084466
 H 0.367 0.4412 0.051223   0.125374
 H 0.244762 0.332089 0.854858   0.10042
 H 0.60034 0.307723 0.786921   0.07394
 H 0.628324 0.297225 0.892519   0.067165
 H 0.798326 0.428771 0.791584   0.342233
 H 0.956798 0.766681 0.896767   0.138619
 H 0.164944 0.636925 0.862433   0.08439
 H 0.694286 0.70332 0.008952   0.068295
 H 0.512604 0.839386 0.0469   0.130153
 H 0.29127 0.965803 0.068551   0.257736
 H 0.911812 0.883054 0.989801   0.084536
 H 0.132482 0.941093 0.948754   0.124381
 H 0.254976 0.831977 0.14511   0.100082
 H 0.899362 0.807642 0.213087   0.07424
 H 0.871354 0.7971 0.107494   0.068399
 H 0.701546 0.928667 0.208397   0.34208
 C 0.621974 0.244013 0.577379   -0.235004
 C 0.71753 0.185872 0.524674   0.16569
 C 0.736628 0.316898 0.597137   0.165387
 C 0.032278 0.279208 0.515355   0.146558
 C 0.929422 0.204345 0.49382   -0.228684
 C 0.593186 0.105971 0.504929   -0.070011
 C 0.631718 0.117363 0.3542   -0.101145
 C 0.40057 0.157809 0.343911   0.095788
 C 0.682754 0.063285 0.279843   0.636742
 C 0.878056 0.744012 0.422545   -0.234878
 C 0.78253 0.685853 0.475257   0.165622
 C 0.763376 0.81687 0.402792   0.165499
 C 0.467734 0.779105 0.484574   0.146491
 C 0.570626 0.704269 0.506108   -0.228188
 C 0.90689 0.605987 0.495019   -0.069775
 C 0.86849 0.617459 0.645758   -0.101032
 C 0.099712 0.65788 0.656031   0.096247
 C 0.817298 0.563411 0.72013   0.637091
 C 0.378312 0.256217 0.077324   -0.23048
 C 0.282912 0.314414 0.02462   0.17123
 C 0.263434 0.18338 0.097056   0.162201
 C 0.967876 0.221209 0.015243   0.14957
 C 0.070952 0.296031 0.0   -0.221012
 C 0.407456 0.394283 0.004921   -0.067873
 C 0.368706 0.383082 0.854193   -0.100518
 C 0.599796 0.342604 0.843882   0.096352
 C 0.317532 0.437245 0.779888   0.638381
 C 0.121596 0.756156 0.922579   -0.236088
 C 0.216872 0.814348 0.975336   0.165694
 C 0.236566 0.683368 0.902832   0.165982
 C 0.53197 0.721237 0.984729   0.147097
 C 0.42879 0.796012 0.00626   -0.22889
 C 0.09224 0.894161 0.995074   -0.069464
 C 0.131102 0.882969 0.145785   -0.100752
 C 0.89995 0.842499 0.156114   0.095459
 C 0.182386 0.937125 0.220092   0.636887
 N 0.939308 0.334691 0.56654   -0.323531
 N 0.640256 0.065077 0.427345   -0.379901
 N 0.560692 0.834613 0.433389   -0.323924
 N 0.859864 0.565138 0.572633   -0.380076
 N 0.060684 0.165675 0.066434   -0.323597
 N 0.3603 0.43528 0.927395   -0.382993
 N 0.439272 0.665704 0.933494   -0.32442
 N 0.139526 0.935173 0.072585   -0.380603
 Cl 0.078084 0.961998 0.5048   -0.572773
 Cl 0.42199 0.462061 0.495185   -0.572686
 Cl 0.922392 0.538328 0.004828   -0.573004
 Cl 0.57752 0.038256 0.995164   -0.573338
 O 0.67559 0.983866 0.288283   -0.560804
 O 0.223792 0.097689 0.346638   -0.519279
 O 0.720914 0.103324 0.215626   -0.581836
 O 0.824408 0.484013 0.711706   -0.560756
 O 0.27634 0.597733 0.653341   -0.518793
 O 0.779114 0.603461 0.784337   -0.582255
 O 0.324464 0.516643 0.788384   -0.560882
 O 0.776688 0.402666 0.846673   -0.518881
 O 0.279404 0.397269 0.715633   -0.583362
 O 0.17552 0.016543 0.21161   -0.560467
 O 0.72319 0.90258 0.153301   -0.518125
 O 0.220522 0.897135 0.284338   -0.582479
