#{'_ref': 'TBD', '_srcid': 'CAKYAQ_clean', 'submitters': [{'name': 'Dalar Nazarian Jeff Camp and David Sholl', 'email': 'dalar@gatech.edu jcamp6@gatech.edu'}], '_method': 'VASP DFT with PBE;DDEC'}
data_CdH9C10N3O4
_symmetry_space_group_name_H-M   'P 1'
_cell_length_a   13.24799969
_cell_length_b   14.54399991
_cell_length_c   18.12400000
_cell_angle_alpha   89.97999927
_cell_angle_beta   89.85800164
_cell_angle_gamma   89.99699977
_symmetry_Int_Tables_number   1
_chemical_formula_structural   CdH9C10N3O4
_chemical_formula_sum   'Cd8 H72 C80 N24 O32'
_cell_volume   3492.10155357
_cell_formula_units_Z   8
loop_
 _symmetry_equiv_pos_site_id
 _symmetry_equiv_pos_as_xyz
  1  'x, y, z'
loop_
 _atom_site_label
 _atom_site_fract_x
 _atom_site_fract_y
 _atom_site_fract_z
 _atom_site_charge
 Cd 0.866432 0.550934 0.332498   0.924271
 Cd 0.633217 0.550926 0.668041   0.924433
 Cd 0.633299 0.050687 0.832458   0.924609
 Cd 0.867097 0.050845 0.167377   0.924474
 Cd 0.366672 0.949345 0.167544   0.923906
 Cd 0.132875 0.949187 0.832624   0.925283
 Cd 0.13354 0.449098 0.667503   0.924252
 Cd 0.366755 0.449105 0.331961   0.924401
 H 0.222321 0.158304 0.283728   0.154059
 H 0.095964 0.050525 0.231323   0.096934
 H 0.876558 0.254713 0.227492   0.086135
 H 0.568452 0.960324 0.008277   0.077779
 H 0.586473 0.873998 0.939598   0.083781
 H 0.693914 0.079252 0.02712   0.10554
 H 0.664453 0.961017 0.117004   0.085379
 H 0.7573 0.873829 0.133338   0.073062
 H 0.786235 0.756643 0.041688   0.087786
 H 0.277737 0.158134 0.716628   0.154253
 H 0.404031 0.050365 0.769066   0.097752
 H 0.62321 0.254809 0.773532   0.086273
 H 0.931622 0.960536 0.0   0.072551
 H 0.913803 0.874269 0.060383   0.076283
 H 0.805995 0.079332 0.972586   0.10617
 H 0.835685 0.960892 0.882836   0.088686
 H 0.742881 0.873581 0.866672   0.072786
 H 0.71416 0.756523 0.958512   0.088315
 H 0.276968 0.658865 0.784098   0.153984
 H 0.403206 0.550868 0.731274   0.09759
 H 0.623172 0.754599 0.727213   0.08626
 H 0.931296 0.460697 0.507859   0.076118
 H 0.913432 0.374367 0.43922   0.083925
 H 0.805687 0.5795 0.527238   0.10614
 H 0.835487 0.461136 0.616981   0.087531
 H 0.742712 0.373832 0.633629   0.073969
 H 0.713918 0.256699 0.542029   0.087349
 H 0.222405 0.658434 0.216646   0.153969
 H 0.095749 0.55075 0.269381   0.097277
 H 0.876152 0.754793 0.272633   0.085678
 H 0.568124 0.460396 0.49266   0.075897
 H 0.586241 0.37412 0.561334   0.084331
 H 0.693585 0.579435 0.473152   0.106778
 H 0.66395 0.461016 0.383523   0.087193
 H 0.756853 0.373854 0.366878   0.073758
 H 0.785932 0.256733 0.458576   0.086998
 H 0.723003 0.341167 0.215901   0.153887
 H 0.596764 0.449164 0.268725   0.097803
 H 0.3768 0.245433 0.272788   0.086076
 H 0.068672 0.539321 0.49214   0.076192
 H 0.086527 0.625656 0.560776   0.083975
 H 0.194291 0.420526 0.472766   0.106113
 H 0.164481 0.538885 0.383018   0.087598
 H 0.257249 0.626194 0.366369   0.073862
 H 0.286031 0.743334 0.457966   0.087271
 H 0.777566 0.341596 0.783353   0.153944
 H 0.904222 0.449281 0.730617   0.097366
 H 0.123818 0.245238 0.727367   0.085715
 H 0.431844 0.53965 0.50734   0.075892
 H 0.413718 0.625921 0.438663   0.084187
 H 0.306393 0.420602 0.526852   0.106872
 H 0.336017 0.539027 0.616477   0.087186
 H 0.243107 0.626183 0.633119   0.073739
 H 0.214017 0.743298 0.541418   0.086934
 H 0.77765 0.841728 0.716275   0.153958
 H 0.904007 0.949506 0.76868   0.096862
 H 0.123412 0.745318 0.772511   0.086141
 H 0.431519 0.039712 0.0   0.073661
 H 0.413495 0.126037 0.060406   0.076554
 H 0.306059 0.920782 0.972881   0.106054
 H 0.335519 0.039017 0.882999   0.088667
 H 0.24267 0.126204 0.866665   0.072849
 H 0.213732 0.243389 0.958316   0.088723
 H 0.722233 0.841898 0.283374   0.154209
 H 0.595939 0.949667 0.230938   0.098144
 H 0.37676 0.745224 0.226472   0.086269
 H 0.068348 0.039493 0.008458   0.077242
 H 0.086166 0.125761 0.939619   0.084054
 H 0.193978 0.920698 0.027416   0.105538
 H 0.164284 0.039137 0.117166   0.085298
 H 0.257087 0.12645 0.133331   0.07298
 H 0.285806 0.243509 0.041492   0.087301
 C 0.973548 0.889986 0.202405   0.638285
 C 0.017413 0.7994 0.2262   -0.171355
 C 0.118466 0.773849 0.213509   0.072398
 C 0.200514 0.339849 0.309175   0.594092
 C 0.146047 0.682606 0.227934   -0.186549
 C 0.076147 0.622137 0.258097   0.162886
 C 0.95341 0.234993 0.241261   0.161517
 C 0.875625 0.916294 0.018778   0.119515
 C 0.779262 0.916103 0.908949   0.075404
 C 0.526591 0.889847 0.797791   0.638067
 C 0.482241 0.799417 0.774074   -0.170254
 C 0.381171 0.774087 0.787005   0.07085
 C 0.299497 0.33966 0.690911   0.593639
 C 0.353347 0.682883 0.772675   -0.185258
 C 0.423019 0.622232 0.742444   0.162224
 C 0.546423 0.23504 0.759624   0.160938
 C 0.624561 0.916123 0.981147   0.102569
 C 0.720917 0.91623 0.090963   0.0752
 C 0.526491 0.389885 0.702947   0.638232
 C 0.48238 0.299339 0.726781   -0.171537
 C 0.381475 0.273749 0.713917   0.072678
 C 0.299277 0.840468 0.809607   0.593241
 C 0.353932 0.182398 0.728094   -0.186947
 C 0.423674 0.12185 0.758119   0.162768
 C 0.546231 0.73502 0.741127   0.160645
 C 0.624278 0.41623 0.519595   0.102043
 C 0.720488 0.416264 0.409364   0.074846
 C 0.973403 0.389968 0.297615   0.637731
 C 0.017465 0.299334 0.273961   -0.17141
 C 0.118436 0.273777 0.286699   0.071756
 C 0.200544 0.839936 0.190807   0.593784
 C 0.146031 0.182474 0.272451   -0.186358
 C 0.076274 0.121938 0.242461   0.16391
 C 0.953159 0.735119 0.259018   0.161633
 C 0.875275 0.416413 0.480923   0.101911
 C 0.779045 0.416312 0.591152   0.073828
 C 0.750022 0.035338 0.999889   0.083286
 C 0.750172 0.800581 6.10000000023e-05   0.121816
 C 0.749666 0.535509 0.50021   0.081024
 C 0.74989 0.300725 0.500284   0.121871
 C 0.473479 0.610146 0.297054   0.637471
 C 0.51759 0.700693 0.273221   -0.171454
 C 0.618496 0.726283 0.286085   0.072436
 C 0.700694 0.159564 0.190394   0.592739
 C 0.646038 0.817634 0.271909   -0.186517
 C 0.576297 0.878183 0.241884   0.162612
 C 0.45374 0.265012 0.258874   0.161429
 C 0.375685 0.58381 0.480404   0.102213
 C 0.279475 0.583774 0.590635   0.074752
 C 0.026567 0.610064 0.702387   0.637504
 C 0.982505 0.700698 0.726041   -0.171302
 C 0.881535 0.726255 0.713303   0.071745
 C 0.799429 0.160093 0.809195   0.593542
 C 0.85394 0.817557 0.727552   -0.186141
 C 0.923697 0.878093 0.757542   0.16341
 C 0.046811 0.264912 0.740981   0.1613
 C 0.124688 0.583611 0.519075   0.101738
 C 0.220919 0.583714 0.408847   0.074102
 C 0.026421 0.110043 0.797594   0.637592
 C 0.982558 0.200631 0.773801   -0.171561
 C 0.881505 0.226182 0.786491   0.072776
 C 0.799457 0.660183 0.690826   0.593767
 C 0.853923 0.317425 0.772065   -0.186767
 C 0.923823 0.377893 0.741901   0.163012
 C 0.046561 0.765039 0.758742   0.161386
 C 0.124345 0.083737 0.981224   0.101842
 C 0.220707 0.083927 0.091054   0.075167
 C 0.47338 0.110185 0.202211   0.638774
 C 0.517729 0.200615 0.225927   -0.170602
 C 0.6188 0.225944 0.212996   0.071084
 C 0.700474 0.660372 0.30909   0.594162
 C 0.646623 0.317149 0.227325   -0.18523
 C 0.576952 0.3778 0.257556   0.162057
 C 0.453547 0.764992 0.240379   0.161162
 C 0.375409 0.083912 0.018857   0.118686
 C 0.279053 0.083804 0.90904   0.07554
 C 0.250308 0.464523 0.499792   0.080653
 C 0.250064 0.699307 0.499711   0.122058
 C 0.249949 0.964684 0.000112999999999   0.083295
 C 0.249794 0.199441 0.999942   0.121608
 N 0.981366 0.64872 0.275947   -0.347451
 N 0.800289 0.977071 0.056874   -0.325187
 N 0.82788 0.857591 0.963685   -0.341465
 N 0.517827 0.648626 0.72438   -0.347893
 N 0.69985 0.976933 0.942962   -0.318025
 N 0.672388 0.857583 0.036322   -0.339796
 N 0.518261 0.148499 0.77623   -0.348417
 N 0.699589 0.477094 0.557385   -0.31633
 N 0.672038 0.357654 0.46427   -0.339575
 N 0.981623 0.148503 0.224544   -0.349461
 N 0.799873 0.477169 0.443068   -0.317116
 N 0.827615 0.357775 0.536279   -0.339169
 N 0.481709 0.851533 0.223773   -0.348896
 N 0.30038 0.522938 0.442616   -0.316559
 N 0.32792 0.642384 0.535727   -0.339538
 N 0.018348 0.851528 0.775459   -0.349202
 N 0.200096 0.522862 0.556932   -0.316552
 N 0.172343 0.642249 0.463717   -0.339349
 N 0.018604 0.351311 0.724051   -0.347599
 N 0.199682 0.022961 0.943128   -0.318222
 N 0.172088 0.14244 0.036317   -0.340064
 N 0.482144 0.351406 0.27562   -0.348011
 N 0.30012 0.0231 0.057041   -0.32453
 N 0.327581 0.142451 0.963681   -0.340668
 O 0.886027 0.910785 0.227806   -0.584322
 O 0.020633 0.439197 0.343769   -0.593263
 O 0.253302 0.320556 0.365427   -0.573996
 O 0.218164 0.406908 0.265828   -0.568296
 O 0.613726 0.9107 0.77177   -0.585138
 O 0.479508 0.438918 0.656493   -0.59356
 O 0.24818 0.320588 0.633969   -0.573977
 O 0.280456 0.406363 0.734326   -0.568914
 O 0.613793 0.410705 0.728379   -0.585294
 O 0.479951 0.938682 0.844695   -0.592714
 O 0.244802 0.82038 0.865063   -0.574022
 O 0.283526 0.908785 0.767231   -0.567471
 O 0.88598 0.410661 0.272264   -0.584882
 O 0.021031 0.93909 0.156095   -0.593246
 O 0.253448 0.820609 0.134456   -0.573952
 O 0.218102 0.906975 0.234097   -0.568155
 O 0.386178 0.589327 0.271623   -0.584922
 O 0.520019 0.061349 0.155306   -0.593683
 O 0.755169 0.179652 0.134938   -0.57365
 O 0.716445 0.091248 0.232771   -0.566916
 O 0.11399 0.58937 0.727737   -0.58472
 O 0.978941 0.060942 0.843907   -0.592134
 O 0.746522 0.179424 0.865544   -0.574213
 O 0.781868 0.093056 0.765904   -0.568236
 O 0.113946 0.089248 0.772196   -0.584872
 O 0.979337 0.560835 0.656232   -0.593335
 O 0.74667 0.679476 0.634574   -0.573913
 O 0.781806 0.593124 0.734173   -0.56821
 O 0.386244 0.089332 0.228231   -0.584588
 O 0.520462 0.561114 0.343508   -0.593182
 O 0.751791 0.679443 0.366032   -0.573948
 O 0.719514 0.593669 0.265675   -0.569166
