#{'_ref': 'TBD', '_srcid': 'CAKYAQ_clean', 'submitters': [{'name': 'Dalar Nazarian Jeff Camp and David Sholl', 'email': 'dalar@gatech.edu jcamp6@gatech.edu'}], '_method': 'VASP DFT with PBE;DDEC'}
data_CdH4(CN)8
_symmetry_space_group_name_H-M   'P 1'
_cell_length_a   9.79600032
_cell_length_b   11.60699986
_cell_length_c   13.79000000
_cell_angle_alpha   65.86499996
_cell_angle_beta   88.86700101
_cell_angle_gamma   81.92699954
_symmetry_Int_Tables_number   1
_chemical_formula_structural   CdH4(CN)8
_chemical_formula_sum   'Cd3 H12 C24 N24'
_cell_volume   1415.47910911
_cell_formula_units_Z   3
loop_
 _symmetry_equiv_pos_site_id
 _symmetry_equiv_pos_as_xyz
  1  'x, y, z'
loop_
 _atom_site_label
 _atom_site_fract_x
 _atom_site_fract_y
 _atom_site_fract_z
 _atom_site_charge
 Cd 0.169227 0.868616 0.490313   0.794495
 Cd 0.830667 0.131414 0.50967   0.794622
 Cd 0.499942 1.99999999992e-05 0.499991   0.576962
 H 0.301952 0.461772 0.912247   0.117617
 H 0.626755 0.681158 0.89964   0.118857
 H 0.631092 0.064042 0.1175   0.118887
 H 0.293275 0.892232 0.066247   0.121125
 H 0.131199 0.593098 0.596187   0.105952
 H 0.771721 0.611628 0.410798   0.132927
 H 0.697919 0.538294 0.087752   0.117657
 H 0.373114 0.318906 0.10036   0.118805
 H 0.368653 0.93614 0.882436   0.118702
 H 0.706476 0.107964 0.93369   0.121358
 H 0.86869 0.40696 0.403749   0.105932
 H 0.22817 0.38843 0.589138   0.133145
 C 0.420878 0.666854 0.782908   0.346134
 C 0.460022 0.580764 0.893444   -0.009262
 C 0.388354 0.478544 0.950898   -0.109032
 C 0.571907 0.601264 0.943978   -0.105439
 C 0.416722 0.950952 0.212247   0.34625
 C 0.457698 0.975008 0.103935   -0.008923
 C 0.574476 0.035714 0.065665   -0.106476
 C 0.38336 0.939798 0.036905   -0.110299
 C 0.883711 0.739212 0.502723   0.34493
 C 0.945652 0.617782 0.501371   -0.011609
 C 0.074703 0.554646 0.551568   -0.112531
 C 0.87124 0.56183 0.450235   -0.076985
 C 0.578989 0.333214 0.217094   0.346393
 C 0.539846 0.419302 0.106557   -0.009785
 C 0.611516 0.521522 0.049102   -0.108913
 C 0.427963 0.3988 0.056023   -0.105078
 C 0.583198 0.04902 0.787752   0.345964
 C 0.542204 0.024982 0.896059   -0.008729
 C 0.425334 0.964386 0.934296   -0.106444
 C 0.616473 0.06028 0.963064   -0.110489
 C 0.116179 0.260836 0.497226   0.34496
 C 0.054238 0.382274 0.498567   -0.011804
 C 0.925188 0.44541 0.448368   -0.112272
 C 0.128652 0.438228 0.549701   -0.077092
 N 0.500311 0.754776 0.722877   -0.309355
 N 0.431989 0.816506 0.630239   -0.00628
 N 0.314159 0.767962 0.632919   -0.11233
 N 0.304435 0.67294 0.728427   -0.334277
 N 0.295317 0.915878 0.254671   -0.33122
 N 0.305941 0.910082 0.353291   -0.099771
 N 0.429305 0.939842 0.369512   -0.016389
 N 0.5001 0.965524 0.282506   -0.311451
 N 0.746483 0.772648 0.502711   -0.297278
 N 0.730129 0.887616 0.504347   0.03673
 N 0.851041 0.926114 0.504893   -0.125369
 N 0.950847 0.83336 0.503759   -0.278422
 N 0.499566 0.24528 0.27712   -0.30994
 N 0.567889 0.183548 0.369758   -0.005892
 N 0.685709 0.232106 0.367084   -0.112347
 N 0.695427 0.327134 0.271578   -0.334066
 N 0.704587 0.084134 0.745321   -0.330944
 N 0.693964 0.089932 0.6467   -0.100158
 N 0.570606 0.060158 0.630482   -0.016376
 N 0.499814 0.034466 0.71749   -0.311068
 N 0.253407 0.2274 0.497241   -0.297493
 N 0.269761 0.112424 0.495621   0.037055
 N 0.148851 0.073918 0.495083   -0.125143
 N 0.049045 0.16668 0.496204   -0.278729
