#{'_ref': 'TBD', '_srcid': 'CAKYAQ_clean', 'submitters': [{'name': 'Dalar Nazarian Jeff Camp and David Sholl', 'email': 'dalar@gatech.edu jcamp6@gatech.edu'}], '_method': 'VASP DFT with PBE;DDEC'}
data_ZnP2H6(C3O4)2
_symmetry_space_group_name_H-M   'P 1'
_cell_length_a   9.38699952
_cell_length_b   10.53899987
_cell_length_c   10.56950000
_cell_angle_alpha   91.03800254
_cell_angle_beta   99.33100082
_cell_angle_gamma   99.59899844
_symmetry_Int_Tables_number   1
_chemical_formula_structural   ZnP2H6(C3O4)2
_chemical_formula_sum   'Zn2 P4 H12 C12 O16'
_cell_volume   1016.25815292
_cell_formula_units_Z   2
loop_
 _symmetry_equiv_pos_site_id
 _symmetry_equiv_pos_as_xyz
  1  'x, y, z'
loop_
 _atom_site_label
 _atom_site_fract_x
 _atom_site_fract_y
 _atom_site_fract_z
 _atom_site_charge
 Zn 0.750122 0.979656 0.021034   1.226365
 Zn 0.249864 0.020344 0.978978   1.226361
 P 0.989266 0.7986 0.042266   1.509096
 P 0.508604 0.959424 0.201648   1.511698
 P 0.010726 0.2014 0.95775   1.509039
 P 0.491384 0.040578 0.798366   1.511683
 H 0.001918 0.80454 0.251254   0.447605
 H 0.73265 0.663924 0.957856   0.406922
 H 0.224052 0.658426 0.081934   0.127621
 H 0.500212 0.750128 0.194148   0.447004
 H 0.766324 0.044006 0.334386   0.406582
 H 0.274826 0.920296 0.343052   0.12828
 H 0.99808 0.195464 0.748762   0.447631
 H 0.267346 0.336076 0.04216   0.406955
 H 0.77595 0.341574 0.918084   0.127651
 H 0.49978 0.249872 0.805866   0.44715
 H 0.233666 0.955996 0.665628   0.406512
 H 0.72516 0.079706 0.65696   0.128401
 C 0.861326 0.54002 0.97035   0.375807
 C 0.989646 0.63023 0.017744   -0.474753
 C 0.12535 0.589028 0.046238   -0.104196
 C 0.638506 0.029648 0.459116   0.377697
 C 0.509488 0.98334 0.36979   -0.475088
 C 0.374 0.954962 0.411846   -0.104421
 C 0.138674 0.45998 0.029666   0.375614
 C 0.010354 0.369772 0.98227   -0.474682
 C 0.874652 0.410974 0.953778   -0.104389
 C 0.361482 0.97035 0.540896   0.37765
 C 0.4905 0.01666 0.630224   -0.474747
 C 0.625988 0.045038 0.588166   -0.104698
 O 0.063126 0.839772 0.18949   -0.704496
 O 0.827674 0.815328 0.021144   -0.854098
 O 0.08776 0.87705 0.961806   -0.819638
 O 0.724968 0.570354 0.939096   -0.523679
 O 0.437214 0.810962 0.160548   -0.704693
 O 0.66983 0.983882 0.18336   -0.853852
 O 0.407236 0.038116 0.125028   -0.821035
 O 0.7748 0.06092 0.428056   -0.524677
 O 0.936868 0.160234 0.810526   -0.704504
 O 0.17232 0.184672 0.978874   -0.854143
 O 0.912224 0.12295 0.0382   -0.819539
 O 0.275028 0.429644 0.060924   -0.523666
 O 0.562776 0.189038 0.839468   -0.704851
 O 0.330162 0.01612 0.816654   -0.853862
 O 0.592754 0.961878 0.874982   -0.821068
 O 0.225188 0.939086 0.571956   -0.52455
