#{'_ref': 'TBD', '_srcid': 'CAKYAQ_clean', 'submitters': [{'name': 'Dalar Nazarian Jeff Camp and David Sholl', 'email': 'dalar@gatech.edu jcamp6@gatech.edu'}], '_method': 'VASP DFT with PBE;DDEC'}
data_CaH3C7NO4
_symmetry_space_group_name_H-M   'P 1'
_cell_length_a   6.32850046
_cell_length_b   13.60150005
_cell_length_c   14.66600000
_cell_angle_alpha   90.01799984
_cell_angle_beta   90.08800113
_cell_angle_gamma   95.76099901
_symmetry_Int_Tables_number   1
_chemical_formula_structural   CaH3C7NO4
_chemical_formula_sum   'Ca4 H12 C28 N4 O16'
_cell_volume   1256.02903903
_cell_formula_units_Z   4
loop_
 _symmetry_equiv_pos_site_id
 _symmetry_equiv_pos_as_xyz
  1  'x, y, z'
loop_
 _atom_site_label
 _atom_site_fract_x
 _atom_site_fract_y
 _atom_site_fract_z
 _atom_site_charge
 Ca 0.220514 0.449506 0.054844   1.487235
 Ca 0.27127 0.051382 0.554366   1.488614
 Ca 0.77081 0.550938 0.944807   1.48798
 Ca 0.720934 0.94932 0.444566   1.485849
 H 0.799372 0.26263 0.252185   0.126191
 H 0.162264 0.126958 0.299116   0.146174
 H 0.042776 0.235102 0.175243   0.079387
 H 0.693046 0.2377 0.752095   0.125873
 H 0.3301 0.373908 0.79911   0.146474
 H 0.449102 0.265868 0.675222   0.079603
 H 0.192258 0.737872 0.747144   0.125896
 H 0.829844 0.872876 0.700236   0.147076
 H 0.948652 0.765132 0.824645   0.078931
 H 0.298832 0.762702 0.247482   0.126005
 H 0.661902 0.626418 0.200274   0.146618
 H 0.542632 0.734422 0.324167   0.079302
 C 0.549118 0.312726 0.170381   0.125743
 C 0.578886 0.118786 0.354651   0.700206
 C 0.630414 0.25437 0.237359   -0.138907
 C 0.276828 0.1788 0.263934   -0.170408
 C 0.493154 0.18621 0.285433   0.011805
 C 0.694002 0.384286 0.114136   0.680038
 C 0.208956 0.239202 0.195294   0.177112
 C 0.94293 0.187808 0.670304   0.125336
 C 0.913346 0.381792 0.854635   0.699313
 C 0.8619 0.246132 0.737297   -0.138544
 C 0.215384 0.321982 0.763925   -0.170397
 C 0.999194 0.314456 0.785402   0.012219
 C 0.797776 0.11615 0.614019   0.681008
 C 0.28302 0.261612 0.695245   0.177204
 C 0.442098 0.687846 0.829324   0.125111
 C 0.414808 0.881004 0.64382   0.698862
 C 0.361152 0.74611 0.762132   -0.138476
 C 0.715072 0.821326 0.735629   -0.171301
 C 0.498834 0.813976 0.713915   0.0124
 C 0.297194 0.616282 0.885605   0.680787
 C 0.782536 0.761132 0.804501   0.177987
 C 0.048758 0.812588 0.329171   0.125664
 C 0.078616 0.618588 0.144932   0.700234
 C 0.129942 0.75428 0.26221   -0.139199
 C 0.776478 0.67839 0.235486   -0.172154
 C 0.992708 0.685986 0.214052   0.012404
 C 0.19381 0.884246 0.385486   0.6792
 C 0.708722 0.738734 0.304155   0.178454
 N 0.33969 0.306188 0.149766   -0.435564
 N 0.152204 0.194512 0.64966   -0.436793
 N 0.651462 0.694312 0.850056   -0.4362
 N 0.839446 0.805858 0.349749   -0.435525
 O 0.601968 0.438844 0.058014   -0.739776
 O 0.470852 0.098826 0.426842   -0.750542
 O 0.750628 0.082664 0.336094   -0.652652
 O 0.891088 0.383962 0.125121   -0.64659
 O 0.889556 0.061828 0.557738   -0.737791
 O 0.02176 0.402114 0.926814   -0.7507
 O 0.740854 0.417426 0.836162   -0.65179
 O 0.600716 0.116232 0.625146   -0.648714
 O 0.389274 0.561818 0.941792   -0.739519
 O 0.526416 0.901064 0.572678   -0.747684
 O 0.241556 0.91669 0.660636   -0.653518
 O 0.10009 0.616452 0.874592   -0.647345
 O 0.102038 0.938918 0.441493   -0.738759
 O 0.970914 0.59858 0.072498   -0.75061
 O 0.250452 0.58257 0.163779   -0.652105
 O 0.390854 0.88388 0.37468   -0.646734
