#{'_ref': 'TBD', '_srcid': 'CAKYAQ_clean', 'submitters': [{'name': 'Dalar Nazarian Jeff Camp and David Sholl', 'email': 'dalar@gatech.edu jcamp6@gatech.edu'}], '_method': 'VASP DFT with PBE;DDEC'}
data_CaH3C7NO4
_symmetry_space_group_name_H-M   'P 1'
_cell_length_a   6.37800026
_cell_length_b   12.29000032
_cell_length_c   15.51263383
_cell_angle_alpha   89.98412072
_cell_angle_beta   78.43412650
_cell_angle_gamma   89.97600190
_symmetry_Int_Tables_number   1
_chemical_formula_structural   CaH3C7NO4
_chemical_formula_sum   'Ca4 H12 C28 N4 O16'
_cell_volume   1191.27696208
_cell_formula_units_Z   4
loop_
 _symmetry_equiv_pos_site_id
 _symmetry_equiv_pos_as_xyz
  1  'x, y, z'
loop_
 _atom_site_label
 _atom_site_fract_x
 _atom_site_fract_y
 _atom_site_fract_z
 _atom_site_charge
 Ca 0.702703 0.047454 0.058797   1.487986
 Ca 0.296961 0.547608 0.441341   1.488505
 Ca 0.296888 0.952464 0.941344   1.488925
 Ca 0.702878 0.452526 0.558684   1.488485
 H 0.250449 0.29805 0.212637   0.128902
 H 0.490029 0.210758 0.238931   0.08066
 H 0.985372 0.394542 0.32606   0.114595
 H 0.74973 0.79842 0.28743   0.129091
 H 0.509854 0.710998 0.261744   0.080458
 H 0.014993 0.894612 0.173917   0.11463
 H 0.749693 0.70168 0.787803   0.129472
 H 0.509893 0.789018 0.761745   0.08051
 H 0.014689 0.605326 0.674235   0.114504
 H 0.250278 0.201916 0.712772   0.128619
 H 0.490149 0.289292 0.738499   0.080479
 H 0.985092 0.105706 0.826288   0.114681
 C 0.715399 0.310658 0.291803   -0.166495
 C 0.010219 0.200618 0.168753   0.126763
 C 0.081366 0.27938 0.22088   -0.140557
 C 0.656993 0.232102 0.235615   0.18505
 C 0.932839 0.33414 0.283715   0.0149
 C 0.552728 0.373668 0.355982   0.721181
 C 0.167344 0.133494 0.104158   0.676472
 C 0.284685 0.81056 0.208317   -0.167105
 C 0.989744 0.70058 0.331246   0.127416
 C 0.918742 0.779478 0.279132   -0.141159
 C 0.34292 0.732258 0.26479   0.185669
 C 0.067376 0.83408 0.21624   0.015208
 C 0.447312 0.87338 0.144012   0.72174
 C 0.832628 0.633544 0.395898   0.676524
 C 0.284731 0.689656 0.708261   -0.167358
 C 0.989842 0.799636 0.83125   0.128604
 C 0.918714 0.720628 0.779326   -0.142051
 C 0.34296 0.767832 0.764784   0.185851
 C 0.067207 0.665974 0.716387   0.015322
 C 0.447249 0.626748 0.643963   0.722522
 C 0.832911 0.866714 0.895951   0.678102
 C 0.715323 0.189688 0.791883   -0.165487
 C 0.010237 0.29967 0.668903   0.127437
 C 0.081261 0.220844 0.721069   -0.1401
 C 0.657086 0.268 0.73541   0.184285
 C 0.932648 0.166222 0.783966   0.01421
 C 0.552662 0.126728 0.856084   0.721874
 C 0.167271 0.366616 0.604127   0.676768
 N 0.799582 0.177688 0.175342   -0.437697
 N 0.200108 0.67793 0.32502   -0.438073
 N 0.20013 0.82215 0.825034   -0.438639
 N 0.79985 0.322316 0.675154   -0.437853
 O 0.088758 0.07773 0.04788   -0.740803
 O 0.360197 0.135052 0.111521   -0.640067
 O 0.381453 0.403532 0.333249   -0.653201
 O 0.600315 0.399612 0.429509   -0.758168
 O 0.911247 0.577662 0.452141   -0.741094
 O 0.639748 0.635216 0.388602   -0.639934
 O 0.61859 0.903382 0.166664   -0.653797
 O 0.399416 0.899036 0.070466   -0.75778
 O 0.9118 0.922428 0.952178   -0.74219
 O 0.639973 0.865214 0.888717   -0.641157
 O 0.61834 0.596454 0.666662   -0.654008
 O 0.399391 0.601316 0.570383   -0.758049
 O 0.088379 0.422306 0.547843   -0.741178
 O 0.360232 0.365054 0.611358   -0.640768
 O 0.381904 0.096398 0.83319   -0.653905
 O 0.599904 0.101268 0.929776   -0.757724
