#{'_ref': 'TBD', '_srcid': 'CAKYAQ_clean', 'submitters': [{'name': 'Dalar Nazarian Jeff Camp and David Sholl', 'email': 'dalar@gatech.edu jcamp6@gatech.edu'}], '_method': 'VASP DFT with PBE;DDEC'}
data_Zn2H18C19(NO4)2
_symmetry_space_group_name_H-M   'P 1'
_cell_length_a   6.76450038
_cell_length_b   6.76749957
_cell_length_c   27.87300000
_cell_angle_alpha   90.32900279
_cell_angle_beta   90.01999783
_cell_angle_gamma   96.05000278
_symmetry_Int_Tables_number   1
_chemical_formula_structural   Zn2H18C19(NO4)2
_chemical_formula_sum   'Zn4 H36 C38 N4 O16'
_cell_volume   1268.862794
_cell_formula_units_Z   2
loop_
 _symmetry_equiv_pos_site_id
 _symmetry_equiv_pos_as_xyz
  1  'x, y, z'
loop_
 _atom_site_label
 _atom_site_fract_x
 _atom_site_fract_y
 _atom_site_fract_z
 _atom_site_charge
 Zn 0.3173 0.965922 0.291574   0.983783
 Zn 0.965458 0.317148 0.708387   0.983516
 Zn 0.465438 0.817354 0.791552   0.984344
 Zn 0.817256 0.464428 0.208475   0.984259
 H 0.361852 0.82423 0.145447   0.161413
 H 0.366104 0.017938 0.190233   0.169808
 H 0.421208 0.333158 0.383709   0.146003
 H 0.466324 0.589164 0.319836   0.101363
 H 0.062192 0.927248 0.38264   0.094758
 H 0.002208 0.688098 0.451102   0.124762
 H 0.041372 0.35327 0.482534   0.087431
 H 0.169134 0.190064 0.446922   0.0966
 H 0.357836 0.497766 0.519402   0.072811
 H 0.82689 0.363006 0.854498   0.161084
 H 0.019654 0.366168 0.809777   0.169565
 H 0.329278 0.41842 0.61631   0.145297
 H 0.585554 0.462606 0.680576   0.101417
 H 0.926106 0.063258 0.616608   0.093666
 H 0.686574 0.004282 0.54774   0.124614
 H 0.350396 0.04257 0.516188   0.08655
 H 0.187236 0.17034 0.551771   0.095361
 H 0.496662 0.359124 0.480435   0.07292
 H 0.326814 0.861074 0.645423   0.161113
 H 0.519614 0.86539 0.69022   0.169999
 H 0.829746 0.92082 0.883885   0.143363
 H 0.08823 0.967874 0.820325   0.101476
 H 0.423446 0.56094 0.881981   0.093806
 H 0.181682 0.498792 0.950087   0.124886
 H 0.84579 0.537182 0.981454   0.087504
 H 0.683948 0.667378 0.946397   0.096156
 H 0.992536 0.852508 0.019032   0.071888
 H 0.86246 0.32888 0.354629   0.160908
 H 0.865688 0.520628 0.309898   0.169554
 H 0.916996 0.825808 0.116209   0.143249
 H 0.963964 0.084314 0.180176   0.101285
 H 0.560866 0.421822 0.117618   0.09444
 H 0.498856 0.179906 0.049103   0.125002
 H 0.536854 0.843406 0.017379   0.086842
 H 0.667276 0.681558 0.052335   0.095833
 H 0.852472 0.992468 0.981007   0.072277
 C 0.154038 0.763632 0.204001   0.758879
 C 0.35116 0.85647 0.183776   -0.592513
 C 0.515436 0.767156 0.211526   0.776361
 C 0.342742 0.465434 0.386473   -0.232865
 C 0.368218 0.605834 0.350253   0.161455
 C 0.141466 0.795506 0.385519   0.144636
 C 0.109368 0.661536 0.423142   -0.263314
 C 0.210918 0.49136 0.424127   0.190435
 C 0.181778 0.339268 0.463424   -0.199679
 C 0.764622 0.154362 0.795782   0.757569
 C 0.858252 0.351664 0.816168   -0.592346
 C 0.768612 0.515674 0.78853   0.776364
 C 0.46201 0.340712 0.613402   -0.231773
 C 0.60267 0.365726 0.649838   0.161893
 C 0.793678 0.14169 0.61392   0.144559
 C 0.65947 0.110092 0.576075   -0.260078
 C 0.488568 0.210674 0.575277   0.186029
 C 0.3367 0.182674 0.535618   -0.19573
 C 0.264492 0.654064 0.70388   0.75935
 C 0.358212 0.850702 0.68375   -0.591317
 C 0.268682 0.01554 0.711581   0.777062
 C 0.961842 0.842086 0.886481   -0.228157
 C 0.1037 0.868672 0.85043   0.161918
 C 0.29174 0.64036 0.885055   0.145278
 C 0.156312 0.60709 0.922485   -0.258747
 C 0.986182 0.708802 0.923707   0.183536
 C 0.832838 0.678524 0.962894   -0.197262
 C 0.654252 0.265172 0.296032   0.758596
 C 0.851314 0.359446 0.316309   -0.590597
 C 0.015672 0.269392 0.288528   0.775353
 C 0.839006 0.9583 0.113527   -0.228909
 C 0.865596 0.100208 0.149799   0.163066
 C 0.639444 0.289526 0.114666   0.144525
 C 0.606234 0.154022 0.077012   -0.260185
 C 0.707122 0.983372 0.075888   0.185827
 C 0.67801 0.830732 0.036266   -0.197482
 C 0.354276 0.35573 0.499746   -0.089746
 C 0.849822 0.849466 0.999819   -0.08816
 N 0.269802 0.76916 0.349607   -0.304696
 N 0.766874 0.26854 0.650258   -0.304321
 N 0.266944 0.770038 0.849545   -0.306468
 N 0.768184 0.264222 0.150513   -0.306722
 O 0.10781 0.808144 0.246617   -0.617346
 O 0.048822 0.64087 0.177224   -0.603403
 O 0.534082 0.807806 0.25587   -0.605288
 O 0.617934 0.65396 0.187605   -0.606875
 O 0.807652 0.10779 0.753096   -0.616299
 O 0.642752 0.04962 0.822575   -0.602538
 O 0.808336 0.533762 0.744205   -0.605308
 O 0.656052 0.61863 0.812486   -0.607012
 O 0.30853 0.607972 0.746427   -0.617973
 O 0.14156 0.549004 0.677141   -0.603049
 O 0.30779 0.034064 0.755975   -0.606247
 O 0.156992 0.118598 0.687629   -0.608088
 O 0.607708 0.308034 0.253451   -0.617764
 O 0.5496 0.143026 0.322738   -0.603101
 O 0.033946 0.30811 0.244182   -0.605338
 O 0.118612 0.157508 0.312423   -0.606902
