#{'_ref': 'TBD', '_srcid': 'CAKYAQ_clean', 'submitters': [{'name': 'Dalar Nazarian Jeff Camp and David Sholl', 'email': 'dalar@gatech.edu jcamp6@gatech.edu'}], '_method': 'VASP DFT with PBE;DDEC'}
data_ZnH6C8NO4
_symmetry_space_group_name_H-M   'P 1'
_cell_length_a   6.92950035
_cell_length_b   13.79300047
_cell_length_c   21.99100000
_cell_angle_alpha   89.95900026
_cell_angle_beta   89.75499873
_cell_angle_gamma   89.82000045
_symmetry_Int_Tables_number   1
_chemical_formula_structural   ZnH6C8NO4
_chemical_formula_sum   'Zn8 H48 C64 N8 O32'
_cell_volume   2101.83892103
_cell_formula_units_Z   8
loop_
 _symmetry_equiv_pos_site_id
 _symmetry_equiv_pos_as_xyz
  1  'x, y, z'
loop_
 _atom_site_label
 _atom_site_fract_x
 _atom_site_fract_y
 _atom_site_fract_z
 _atom_site_charge
 Zn 0.24778 0.879488 0.866839   0.991496
 Zn 0.784082 0.629214 0.967447   0.983306
 Zn 0.75047 0.117293 0.367706   0.966489
 Zn 0.215752 0.367322 0.467051   0.987338
 Zn 0.251222 0.381677 0.866875   0.991747
 Zn 0.715912 0.129103 0.967676   0.98238
 Zn 0.743302 0.616953 0.367782   0.986687
 Zn 0.283858 0.868062 0.467161   1.009185
 H 0.293418 0.7898 0.051511   0.169372
 H 0.287272 0.893304 0.001679   0.175228
 H 0.751956 0.54191 0.781992   0.167781
 H 0.756124 0.645116 0.83201   0.176814
 H 0.10562 0.893246 0.735294   0.090747
 H 0.087432 0.785589 0.643704   0.142507
 H 0.296112 0.552523 0.75838   0.131163
 H 0.311708 0.669913 0.842968   0.106864
 H 0.05652 0.472175 0.689286   0.141066
 H 0.06409 0.363141 0.598048   0.093266
 H 0.323066 0.573847 0.491642   0.107349
 H 0.317518 0.693064 0.57585   0.133801
 H 0.706456 0.207668 0.551918   0.170541
 H 0.714382 0.104097 0.502274   0.178327
 H 0.247362 0.45831 0.282521   0.167939
 H 0.240076 0.354109 0.331785   0.1719
 H 0.890738 0.104148 0.235524   0.088316
 H 0.908826 0.211866 0.143835   0.144449
 H 0.706708 0.445623 0.259432   0.133287
 H 0.691 0.328143 0.344176   0.108963
 H 0.942274 0.525549 0.189026   0.141793
 H 0.935184 0.634131 0.097476   0.096174
 H 0.675174 0.423241 0.992368   0.108583
 H 0.67996 0.304414 0.076875   0.133974
 H 0.203296 0.289258 0.051633   0.167119
 H 0.21064 0.393565 0.002476   0.174276
 H 0.745906 0.040997 0.782706   0.167947
 H 0.739322 0.143962 0.832849   0.175253
 H 0.394182 0.393532 0.734867   0.089844
 H 0.410644 0.285496 0.643357   0.141249
 H 0.204942 0.053394 0.759393   0.132478
 H 0.190216 0.171202 0.84383   0.107162
 H 0.443496 0.972442 0.68901   0.14012
 H 0.435056 0.863322 0.597886   0.093369
 H 0.171856 0.07394 0.492624   0.104446
 H 0.177684 0.193302 0.576739   0.131475
 H 0.796066 0.70852 0.5516   0.166447
 H 0.788542 0.604335 0.502496   0.173111
 H 0.252772 0.0 0.282818   0.082296
 H 0.258372 0.854335 0.332554   0.225902
 H 0.601222 0.605134 0.236345   0.088998
 H 0.586018 0.712744 0.144536   0.141794
 H 0.79519 0.944761 0.259239   0.128987
 H 0.808494 0.827321 0.343998   0.11115
 H 0.557118 0.026149 0.189783   0.130017
 H 0.56543 0.134957 0.098329   0.093726
 H 0.823188 0.922881 0.992316   0.107463
 H 0.817092 0.80384 0.076719   0.134413
 C 0.456298 0.774196 0.967674   0.760004
 C 0.28425 0.81358 0.004164   -0.589088
 C 0.098606 0.777398 0.975114   0.765847
 C 0.58381 0.526835 0.864912   0.770196
 C 0.75838 0.56539 0.829422   -0.591083
 C 0.941984 0.528083 0.859388   0.768789
 C 0.150002 0.817528 0.737417   0.147248
 C 0.138884 0.757153 0.687004   -0.227835
 C 0.19215 0.659314 0.692919   0.122582
 C 0.25273 0.627129 0.750161   -0.190808
 C 0.262842 0.692406 0.798098   0.152495
 C 0.18884 0.592192 0.640563   0.118585
 C 0.117358 0.497467 0.646306   -0.227841
 C 0.122672 0.43625 0.596173   0.141991
 C 0.264726 0.554517 0.536104   0.153532
 C 0.260958 0.620693 0.58375   -0.189357
 C 0.541526 0.222111 0.468804   0.783216
 C 0.715228 0.183847 0.50457   -0.593767
 C 0.899474 0.221057 0.474657   0.767664
 C 0.414926 0.470747 0.365165   0.768051
 C 0.240028 0.433884 0.329788   -0.589594
 C 0.05681 0.471644 0.36039   0.76795
 C 0.847558 0.180024 0.237859   0.144832
 C 0.858588 0.240401 0.187361   -0.227485
 C 0.806786 0.338401 0.193491   0.125596
 C 0.748434 0.370807 0.251052   -0.191141
 C 0.738304 0.305463 0.29906   0.152718
 C 0.809542 0.405383 0.141   0.11702
 C 0.881266 0.500089 0.146299   -0.228016
 C 0.87623 0.561086 0.096032   0.143222
 C 0.733544 0.442632 0.036654   0.151982
 C 0.73699 0.376716 0.084481   -0.188819
 C 0.041402 0.275629 0.967893   0.758442
 C 0.21316 0.313799 0.004434   -0.587529
 C 0.399206 0.277508 0.974967   0.766388
 C 0.915614 0.026326 0.864934   0.768752
 C 0.739558 0.064231 0.8302   -0.590478
 C 0.557282 0.026027 0.860889   0.767957
 C 0.349878 0.317955 0.737343   0.147537
 C 0.36008 0.257386 0.686946   -0.229456
 C 0.30693 0.159735 0.693246   0.123251
 C 0.247906 0.127887 0.750855   -0.192066
 C 0.238436 0.193422 0.798728   0.152314
 C 0.308982 0.092488 0.640917   0.117805
 C 0.38137 0.997733 0.646336   -0.229446
 C 0.375566 0.936429 0.596277   0.144565
 C 0.231044 0.054689 0.536856   0.15306
 C 0.235076 0.120909 0.584457   -0.193513
 C 0.956116 0.72256 0.467115   0.778348
 C 0.7852 0.684097 0.504451   -0.59333
 C 0.598258 0.720124 0.475947   0.767737
 C 0.083878 0.972237 0.36561   0.739935
 C 0.259312 0.934089 0.330197   -0.556181
 C 0.442112 0.0 0.360366   0.724547
 C 0.64645 0.680588 0.23843   0.146694
 C 0.636986 0.740923 0.187894   -0.229124
 C 0.691176 0.838448 0.193769   0.122244
 C 0.751166 0.870372 0.251071   -0.188645
 C 0.759764 0.805071 0.299114   0.161885
 C 0.688904 0.905467 0.141296   0.120483
 C 0.617976 0.000497000000003 0.146872   -0.224259
 C 0.623706 0.061593 0.096651   0.140361
 C 0.76514 0.942511 0.036784   0.15218
 C 0.76093 0.876469 0.084543   -0.188139
 N 0.213802 0.786509 0.791985   -0.302987
 N 0.197942 0.463277 0.542034   -0.305665
 N 0.785308 0.211141 0.292706   -0.311531
 N 0.800956 0.53379 0.042165   -0.302568
 N 0.286974 0.287406 0.792242   -0.304071
 N 0.29896 0.963444 0.542466   -0.305139
 N 0.709574 0.711275 0.293072   -0.302442
 N 0.698924 0.034037 0.042595   -0.301542
 O 0.468292 0.795521 0.911712   -0.603348
 O 0.574518 0.721292 0.0   -0.61505
 O 0.05348 0.80842 0.922576   -0.620278
 O 0.99953 0.716202 0.005173   -0.599194
 O 0.567354 0.549007 0.920633   -0.615066
 O 0.466392 0.474213 0.835312   -0.608912
 O 0.983692 0.557926 0.912398   -0.620636
 O 0.041368 0.466513 0.829421   -0.60461
 O 0.527206 0.199623 0.413115   -0.633007
 O 0.424286 0.275588 0.498465   -0.606942
 O 0.9429 0.191256 0.421638   -0.616116
 O 0.999116 0.281896 0.50446   -0.596505
 O 0.432512 0.446432 0.42051   -0.612327
 O 0.532054 0.524551 0.335964   -0.606065
 O 0.015906 0.441856 0.413582   -0.622031
 O 0.957384 0.533117 0.330623   -0.603624
 O 0.027984 0.299289 0.912333   -0.603134
 O 0.924866 0.221287 0.0   -0.615422
 O 0.443304 0.308237 0.922216   -0.620329
 O 0.49956 0.21665 0.004931   -0.600092
 O 0.933048 0.049505 0.920446   -0.61446
 O 0.033034 0.973135 0.835211   -0.6084
 O 0.51669 0.054382 0.914421   -0.618847
 O 0.45822 0.965209 0.830737   -0.605914
 O 0.96625 0.700665 0.411226   -0.616293
 O 0.075354 0.775199 0.496005   -0.618803
 O 0.550456 0.687819 0.423988   -0.618093
 O 0.50058 0.782511 0.505665   -0.595219
 O 0.067222 0.949882 0.421329   -0.615168
 O 0.966004 0.024926 0.336021   -0.61999
 O 0.483582 0.941408 0.413424   -0.717802
 O 0.540948 0.032989 0.330526   -0.421257
