#{'_ref': 'TBD', '_srcid': 'CAKYAQ_clean', 'submitters': [{'name': 'Dalar Nazarian Jeff Camp and David Sholl', 'email': 'dalar@gatech.edu jcamp6@gatech.edu'}], '_method': 'VASP DFT with PBE;DDEC'}
data_ZnH30C40(N3O2)2
_symmetry_space_group_name_H-M   'P 1'
_cell_length_a   10.93750013
_cell_length_b   13.46300015
_cell_length_c   15.13000000
_cell_angle_alpha   90.05600203
_cell_angle_beta   105.41600207
_cell_angle_gamma   90.01299914
_symmetry_Int_Tables_number   1
_chemical_formula_structural   ZnH30C40(N3O2)2
_chemical_formula_sum   'Zn2 H60 C80 N12 O8'
_cell_volume   2147.7571406
_cell_formula_units_Z   2
loop_
 _symmetry_equiv_pos_site_id
 _symmetry_equiv_pos_as_xyz
  1  'x, y, z'
loop_
 _atom_site_label
 _atom_site_fract_x
 _atom_site_fract_y
 _atom_site_fract_z
 _atom_site_charge
 Zn 0.751746 0.174104 0.499944   0.872956
 Zn 0.250584 0.825372 0.500022   0.872223
 H 0.478812 0.160916 0.347352   0.144839
 H 0.762322 0.941729 0.422575   0.113818
 H 0.565976 0.866569 0.282428   0.14545
 H 0.36607 0.155155 0.181588   0.124093
 H 0.15947 0.137035 0.062727   0.108688
 H 0.143374 0.829267 0.135244   0.123591
 H 0.345178 0.848097 0.257443   0.115187
 H 0.021856 0.298525 0.354996   0.108719
 H 0.10014 0.375284 0.22957   0.10848
 H 0.72071 0.472231 0.098324   0.089355
 H 0.646054 0.396076 0.224671   0.097003
 H 0.928024 0.635382 0.176874   0.132584
 H 0.91483 0.720191 0.084283   0.109472
 H 0.786868 0.639912 0.08705   0.118342
 H 0.020166 0.323722 0.045319   0.105689
 H 0.022082 0.161053 0.652091   0.145763
 H 0.738772 0.942352 0.577338   0.112311
 H 0.934028 0.867177 0.718072   0.146978
 H 0.134748 0.155868 0.817668   0.123968
 H 0.341426 0.137654 0.936417   0.107887
 H 0.35593 0.8295 0.864174   0.123217
 H 0.154014 0.848401 0.742088   0.114409
 H 0.47886 0.298142 0.644355   0.108429
 H 0.40016 0.374908 0.769736   0.111
 H 0.779884 0.472519 0.901763   0.089226
 H 0.855546 0.39659 0.775693   0.097794
 H 0.571546 0.634915 0.822913   0.133221
 H 0.584726 0.719748 0.915633   0.109895
 H 0.712844 0.63979 0.912593   0.118418
 H 0.479442 0.323271 0.953768   0.105215
 H 0.52289 0.839041 0.652412   0.144361
 H 0.238146 0.057281 0.577222   0.113857
 H 0.433758 0.132699 0.717828   0.145733
 H 0.634784 0.844506 0.818138   0.124231
 H 0.841358 0.862833 0.937087   0.108604
 H 0.856468 0.170847 0.865097   0.123274
 H 0.654702 0.151847 0.742809   0.11496
 H 0.97639 0.701033 0.644771   0.107439
 H 0.898746 0.624071 0.770468   0.114428
 H 0.279674 0.527107 0.901815   0.090445
 H 0.354954 0.603053 0.775742   0.097481
 H 0.070542 0.364535 0.82289   0.132897
 H 0.084086 0.279786 0.915565   0.109118
 H 0.212086 0.359833 0.912345   0.117513
 H 0.978646 0.67629 0.954311   0.104958
 H 0.976078 0.839764 0.347471   0.143473
 H 0.263188 0.057093 0.422496   0.115274
 H 0.067144 0.132392 0.282362   0.144298
 H 0.864304 0.844779 0.181771   0.123896
 H 0.657982 0.862954 0.062627   0.108424
 H 0.643672 0.171332 0.134156   0.12317
 H 0.845246 0.152528 0.256558   0.115455
 H 0.522714 0.70104 0.354926   0.108498
 H 0.600814 0.624106 0.229368   0.111025
 H 0.220848 0.526405 0.09817   0.089632
 H 0.14575 0.602582 0.224337   0.097202
 H 0.428658 0.363986 0.176277   0.132763
 H 0.415618 0.279203 0.083518   0.109455
 H 0.287474 0.359153 0.086485   0.117799
 H 0.521042 0.675683 0.04552   0.105534
 C 0.528954 0.091139 0.350236   0.100472
 C 0.672836 0.975419 0.387029   0.001237
 C 0.577192 0.937092 0.31798   -0.142374
 C 0.36782 0.002458 0.226423   0.135082
 C 0.315554 0.08456 0.172377   -0.171509
 C 0.201206 0.074508 0.105786   -0.113426
 C 0.138594 0.981976 0.091577   0.176783
 C 0.192248 0.900584 0.14618   -0.116093
 C 0.305834 0.91067 0.213729   -0.138882
 C 0.778064 0.288316 0.366179   0.630829
 C 0.82938 0.340956 0.296209   -0.099093
 C 0.958122 0.336521 0.297931   -0.060646
 C 0.999732 0.378734 0.227557   -0.164849
 C 0.915968 0.428215 0.154491   0.088015
 C 0.787944 0.435236 0.154784   -0.150161
 C 0.745406 0.392066 0.224619   -0.053349
 C 0.95907 0.467925 0.07641   0.010143
 C 0.944506 0.568749 0.049997   0.116062
 C 0.890804 0.645011 0.102406   -0.384238
 C 0.013508 0.40205 0.025846   -0.206463
 C 0.973284 0.090946 0.649704   0.100185
 C 0.828468 0.975783 0.612952   0.005118
 C 0.923548 0.937468 0.682299   -0.145294
 C 0.132186 0.002922 0.773095   0.133188
 C 0.184912 0.085156 0.826957   -0.171291
 C 0.299272 0.075061 0.89346   -0.113323
 C 0.361388 0.982383 0.907726   0.176839
 C 0.307362 0.900899 0.853218   -0.114707
 C 0.193736 0.911018 0.78576   -0.139368
 C 0.724684 0.28824 0.63393   0.633177
 C 0.67272 0.34068 0.703779   -0.09831
 C 0.543904 0.335754 0.701782   -0.061281
 C 0.500628 0.378348 0.771915   -0.168061
 C 0.584938 0.427708 0.845243   0.089622
 C 0.713028 0.435215 0.845209   -0.149814
 C 0.756142 0.392171 0.775517   -0.055193
 C 0.54134 0.467349 0.923223   0.009239
 C 0.555546 0.568216 0.949766   0.117855
 C 0.608908 0.644629 0.897382   -0.385829
 C 0.48637 0.401558 0.973537   -0.207394
 C 0.47232 0.908611 0.649584   0.101492
 C 0.32778 0.023864 0.612828   0.002678
 C 0.423042 0.062307 0.682076   -0.142664
 C 0.632646 0.997356 0.773633   0.134952
 C 0.685092 0.915196 0.82751   -0.172254
 C 0.799368 0.925349 0.894116   -0.112432
 C 0.861614 0.018018 0.908454   0.176451
 C 0.807788 0.099456 0.854014   -0.11539
 C 0.694264 0.089274 0.786446   -0.138703
 C 0.223824 0.71142 0.634188   0.633757
 C 0.172084 0.658998 0.704143   -0.097509
 C 0.043354 0.663878 0.702411   -0.062086
 C 0.99914 0.621024 0.77238   -0.171875
 C 0.084692 0.571913 0.845741   0.090008
 C 0.21269 0.564426 0.845437   -0.151703
 C 0.255602 0.6075 0.775709   -0.052125
 C 0.041202 0.532238 0.923734   0.009623
 C 0.055034 0.431318 0.949944   0.115952
 C 0.108168 0.354906 0.897329   -0.383239
 C 0.985804 0.598032 0.974023   -0.205734
 C 0.028536 0.908498 0.350719   0.100701
 C 0.173358 0.023689 0.38713   -0.001787
 C 0.077886 0.062073 0.318103   -0.137376
 C 0.866904 0.997829 0.226061   0.137782
 C 0.814254 0.91554 0.17224   -0.171242
 C 0.700094 0.925609 0.105512   -0.113545
 C 0.638098 0.018326 0.090975   0.175858
 C 0.692124 0.099893 0.145362   -0.114657
 C 0.805548 0.089809 0.213023   -0.139968
 C 0.277136 0.711235 0.365865   0.63066
 C 0.328724 0.658608 0.295894   -0.096501
 C 0.457456 0.663431 0.29761   -0.063484
 C 0.500412 0.620707 0.227384   -0.167327
 C 0.41588 0.571269 0.154219   0.08878
 C 0.2879 0.563787 0.154566   -0.150605
 C 0.245094 0.606994 0.22434   -0.052671
 C 0.459212 0.531596 0.076122   0.009306
 C 0.444916 0.430744 0.049521   0.117164
 C 0.39142 0.354309 0.101796   -0.383634
 C 0.514122 0.597393 0.025764   -0.207147
 N 0.641322 0.070958 0.40727   -0.328445
 N 0.485656 0.011196 0.294491   0.056326
 N 0.02343 0.962509 0.024881   -0.167296
 N 0.860934 0.070951 0.592503   -0.333843
 N 0.014294 0.011693 0.705179   0.062903
 N 0.476398 0.962898 0.974463   -0.168247
 N 0.359974 0.928566 0.592457   -0.329301
 N 0.514956 0.988488 0.705514   0.056572
 N 0.97666 0.037514 0.975177   -0.168091
 N 0.141124 0.928466 0.407591   -0.322807
 N 0.98447 0.989025 0.294331   0.048149
 N 0.523162 0.037786 0.024161   -0.165265
 O 0.662806 0.295016 0.363246   -0.588338
 O 0.858264 0.233659 0.425472   -0.612548
 O 0.840004 0.295278 0.637152   -0.589529
 O 0.644924 0.233449 0.574369   -0.612513
 O 0.339116 0.7045 0.63729   -0.590124
 O 0.143946 0.766067 0.574684   -0.612595
 O 0.161834 0.704437 0.362801   -0.588761
 O 0.357178 0.765943 0.425361   -0.612061
