#{'_ref': 'TBD', '_srcid': 'CAKYAQ_clean', 'submitters': [{'name': 'Dalar Nazarian Jeff Camp and David Sholl', 'email': 'dalar@gatech.edu jcamp6@gatech.edu'}], '_method': 'VASP DFT with PBE;DDEC'}
data_Cu5H18C26I5N4
_symmetry_space_group_name_H-M   'P 1'
_cell_length_a   10.78249976
_cell_length_b   15.21700000
_cell_length_c   15.23000011
_cell_angle_alpha   117.71300096
_cell_angle_beta   107.00700022
_cell_angle_gamma   94.79599892
_symmetry_Int_Tables_number   1
_chemical_formula_structural   Cu5H18C26I5N4
_chemical_formula_sum   'Cu10 H36 C52 I10 N8'
_cell_volume   2043.0688829
_cell_formula_units_Z   2
loop_
 _symmetry_equiv_pos_site_id
 _symmetry_equiv_pos_as_xyz
  1  'x, y, z'
loop_
 _atom_site_label
 _atom_site_fract_x
 _atom_site_fract_y
 _atom_site_fract_z
 _atom_site_charge
 Cu 0.95042 0.526518 0.57296   0.133761
 Cu 0.90397 0.7442 0.616655   0.075938
 Cu 0.733296 0.754433 0.715395   0.116079
 Cu 0.647536 0.738892 0.517073   0.128495
 Cu 0.80839 0.903857 0.687842   0.13739
 Cu 0.050166 0.473694 0.427242   0.133565
 Cu 0.096798 0.256226 0.383746   0.076122
 Cu 0.267214 0.24535 0.284649   0.11616
 Cu 0.353006 0.260866 0.482897   0.127697
 Cu 0.191022 0.09611 0.312115   0.137417
 H 0.12743 0.684505 0.798924   0.068771
 H 0.326742 0.683931 0.931908   0.139911
 H 0.189952 0.352052 0.753576   0.122939
 H 0.998896 0.365938 0.627   0.068733
 H 0.265112 0.420839 0.955848   0.103156
 H 0.42074 0.506187 0.739653   0.127415
 H 0.509312 0.589638 0.658463   0.057499
 H 0.811458 0.8054 0.94783   0.078673
 H 0.732636 0.73301 0.044023   0.137056
 H 0.120184 0.930565 0.087751   0.077775
 H 0.071622 0.74094 0.983385   0.118738
 H 0.105212 0.741974 0.274126   0.137843
 H 0.15209 0.932193 0.366556   0.08637
 H 0.886982 0.602012 0.931339   0.10682
 H 0.16688 0.521747 0.272594   0.122943
 H 0.378134 0.598264 0.430222   0.067762
 H 0.558384 0.747555 0.313113   0.080002
 H 0.349842 0.682151 0.151848   0.132621
 H 0.872562 0.315487 0.201082   0.068768
 H 0.673216 0.316011 0.068078   0.139858
 H 0.809844 0.647908 0.246431   0.123011
 H 0.000909999999998 0.63406 0.373051   0.068782
 H 0.734782 0.579051 0.04411   0.103374
 H 0.579216 0.493756 0.260312   0.127555
 H 0.490826 0.410254 0.341529   0.057419
 H 0.188634 0.194448 0.052209   0.078764
 H 0.267282 0.266883 0.955983   0.136963
 H 0.879892 0.069471 0.912343   0.077772
 H 0.928628 0.259091 0.016718   0.118732
 H 0.894766 0.258007 0.725907   0.13813
 H 0.847718 0.06779 0.633473   0.086356
 H 0.11305 0.397994 0.068678   0.106655
 H 0.833296 0.478343 0.727543   0.12272
 H 0.622088 0.40178 0.569847   0.067745
 H 0.441798 0.252394 0.686861   0.079714
 H 0.650276 0.317872 0.848205   0.13257
 C 0.14492 0.612481 0.792259   0.132285
 C 0.255884 0.611482 0.865995   -0.220531
 C 0.276634 0.517257 0.853725   0.129538
 C 0.179128 0.427751 0.768364   -0.217084
 C 0.071886 0.434838 0.697201   0.130445
 C 0.394428 0.509683 0.926848   0.018495
 C 0.369516 0.452952 0.973431   -0.155521
 C 0.528914 0.557911 0.953027   0.013853
 C 0.569448 0.610715 0.900806   0.125065
 C 0.506496 0.573216 0.790837   -0.204489
 C 0.556724 0.619438 0.743965   0.132181
 C 0.724798 0.739063 0.904871   0.118672
 C 0.680222 0.697387 0.957868   -0.223855
 C 0.116854 0.885978 0.126453   0.123345
 C 0.089022 0.779396 0.068362   -0.216503
 C 0.084802 0.723115 0.119449   0.121477
 C 0.108772 0.780171 0.22929   -0.219076
 C 0.135038 0.886654 0.281726   0.126022
 C 0.048684 0.609035 0.058926   0.014375
 C 0.93914 0.556763 0.96036   -0.150712
 C 0.112844 0.550364 0.099181   0.020144
 C 0.237644 0.595735 0.196986   0.122226
 C 0.249874 0.571976 0.277318   -0.206078
 C 0.36915 0.614383 0.366344   0.130037
 C 0.468322 0.69807 0.301253   0.123469
 C 0.351412 0.66116 0.211425   -0.210903
 C 0.855004 0.387498 0.207744   0.132327
 C 0.744046 0.388471 0.133992   -0.220296
 C 0.723262 0.482688 0.146261   0.129338
 C 0.820716 0.572217 0.231642   -0.217097
 C 0.927944 0.565155 0.302834   0.13053
 C 0.605456 0.490232 0.073123   0.019256
 C 0.630374 0.546939 0.02652   -0.156392
 C 0.470972 0.442006 0.046947   0.013397
 C 0.430512 0.389177 0.099168   0.125072
 C 0.493506 0.426695 0.209138   -0.204989
 C 0.443352 0.380472 0.256035   0.132426
 C 0.275246 0.26082 0.095154   0.117915
 C 0.319762 0.30249 0.04213   -0.223313
 C 0.883202 0.114044 0.873624   0.123336
 C 0.911118 0.220634 0.931721   -0.216757
 C 0.915264 0.276906 0.880616   0.122178
 C 0.891216 0.219828 0.77076   -0.219884
 C 0.864856 0.113339 0.718318   0.126913
 C 0.95142 0.390993 0.941127   0.014047
 C 0.060924 0.443275 0.039686   -0.150524
 C 0.887246 0.449672 0.900891   0.020384
 C 0.762494 0.404285 0.803075   0.122039
 C 0.750298 0.428083 0.722774   -0.20551
 C 0.631054 0.385662 0.633725   0.130271
 C 0.531858 0.301918 0.698771   0.124329
 C 0.64873 0.338851 0.788623   -0.211293
 I 0.708642 0.568764 0.532648   -0.161292
 I 0.12141 0.675442 0.58589   -0.221581
 I 0.989488 0.864391 0.833715   -0.261305
 I 0.847414 0.837407 0.497412   -0.277138
 I 0.548432 0.849535 0.666801   -0.257553
 I 0.291804 0.431296 0.467394   -0.160656
 I 0.87838 0.324571 0.414188   -0.223528
 I 0.010446 0.135591 0.166191   -0.261937
 I 0.152898 0.162705 0.502767   -0.276628
 I 0.45153 0.149998 0.333087   -0.257085
 N 0.054676 0.52539 0.706342   -0.226463
 N 0.666138 0.700137 0.798278   -0.189865
 N 0.13972 0.940394 0.232129   -0.187542
 N 0.478942 0.67611 0.379289   -0.200142
 N 0.945204 0.474604 0.293666   -0.226557
 N 0.334038 0.299695 0.201733   -0.189439
 N 0.860122 0.059599 0.767911   -0.188305
 N 0.521304 0.323856 0.620726   -0.2001
