#{'_ref': 'TBD', '_srcid': 'CAKYAQ_clean', 'submitters': [{'name': 'Dalar Nazarian Jeff Camp and David Sholl', 'email': 'dalar@gatech.edu jcamp6@gatech.edu'}], '_method': 'VASP DFT with PBE;DDEC'}
data_YH6(C2O)6
_symmetry_space_group_name_H-M   'P 1'
_cell_length_a   10.80399962
_cell_length_b   10.80900022
_cell_length_c   18.38900000
_cell_angle_alpha   73.81000144
_cell_angle_beta   73.84999863
_cell_angle_gamma   77.84099860
_symmetry_Int_Tables_number   1
_chemical_formula_structural   YH6(C2O)6
_chemical_formula_sum   'Y4 H24 C48 O24'
_cell_volume   1960.20595656
_cell_formula_units_Z   4
loop_
 _symmetry_equiv_pos_site_id
 _symmetry_equiv_pos_as_xyz
  1  'x, y, z'
loop_
 _atom_site_label
 _atom_site_fract_x
 _atom_site_fract_y
 _atom_site_fract_z
 _atom_site_charge
 Y 0.45458 0.527478 0.601508   2.043404
 Y 0.4728 0.545076 0.898208   2.043592
 Y 0.544996 0.472772 0.398381   2.044603
 Y 0.52779 0.45435 0.101582   2.042451
 H 0.78733 0.566146 0.585809   0.119832
 H 0.115734 0.510252 0.725893   0.115948
 H 0.004916 0.41727 0.385916   0.119778
 H 0.197384 0.360082 0.95289   0.111175
 H 0.958682 0.362812 0.013243   0.120148
 H 0.875966 0.517564 0.787164   0.118563
 H 0.434866 0.213278 0.913743   0.119726
 H 0.489992 0.885104 0.773988   0.114196
 H 0.581158 0.996184 0.114637   0.118632
 H 0.63865 0.803734 0.54698   0.115101
 H 0.63691 0.041886 0.486578   0.119643
 H 0.482562 0.12451 0.712599   0.117255
 H 0.213306 0.433848 0.414405   0.122105
 H 0.885064 0.489908 0.274276   0.112316
 H 0.99606 0.5818 0.614249   0.115841
 H 0.80325 0.639104 0.047295   0.110591
 H 0.041656 0.636916 0.0   0.094185
 H 0.125084 0.481962 0.212547   0.116422
 H 0.565442 0.787414 0.086383   0.123883
 H 0.509826 0.116292 0.226125   0.114344
 H 0.418242 0.004974 0.885319   0.117999
 H 0.359814 0.197714 0.453087   0.11229
 H 0.362768 0.958324 0.513194   0.117106
 H 0.517168 0.876058 0.287088   0.119393
 C 0.311032 0.444976 0.800506   0.779714
 C 0.882942 0.490946 0.483881   -0.092831
 C 0.903908 0.442368 0.90366   -0.105539
 C 0.761438 0.456706 0.939781   0.759316
 C 0.169942 0.43668 0.836079   -0.13739
 C 0.759678 0.482826 0.464556   0.719157
 C 0.880656 0.537166 0.548514   -0.0761
 C 0.080104 0.478784 0.788701   -0.06212
 C 0.003772 0.453628 0.43571   -0.07464
 C 0.126536 0.392812 0.91697   -0.071224
 C 0.99412 0.394814 0.95059   -0.067722
 C 0.947728 0.482104 0.822469   -0.075494
 C 0.553352 0.690256 0.699341   0.785331
 C 0.509008 0.117136 0.016104   -0.094773
 C 0.557586 0.09654 0.596143   -0.104724
 C 0.543452 0.238952 0.560021   0.757701
 C 0.562672 0.831122 0.663794   -0.137887
 C 0.517458 0.240024 0.035587   0.722641
 C 0.463184 0.119854 0.951201   -0.074958
 C 0.521348 0.92083 0.711176   -0.063381
 C 0.545544 0.996994 0.064612   -0.069775
 C 0.606472 0.874518 0.582889   -0.065115
 C 0.60503 0.006868 0.549248   -0.069215
 C 0.51774 0.052776 0.677325   -0.077659
 C 0.689978 0.553662 0.19957   0.785008
 C 0.117116 0.509064 0.516276   -0.094428
 C 0.096748 0.55721 0.096135   -0.158278
 C 0.239158 0.542844 0.059938   0.866899
 C 0.830882 0.56289 0.164083   -0.144657
 C 0.240008 0.517456 0.535844   0.721656
 C 0.119858 0.462628 0.451649   -0.070702
 C 0.920696 0.521322 0.211461   -0.063156
 C 0.996952 0.54568 0.564413   -0.07409
 C 0.874166 0.606718 0.083172   -0.081916
 C 0.00654 0.604926 0.049496   -0.030735
 C 0.053182 0.517322 0.177333   -0.074285
 C 0.445028 0.311298 0.30066   0.776568
 C 0.491478 0.882862 0.983908   -0.096379
 C 0.44217 0.903776 0.403603   -0.110845
 C 0.456414 0.761296 0.439698   0.761555
 C 0.43635 0.170346 0.336294   -0.129144
 C 0.483636 0.759538 0.964641   0.726912
 C 0.536972 0.880686 0.048835   -0.073352
 C 0.478236 0.080616 0.288922   -0.063407
 C 0.45412 0.003808 0.935315   -0.076131
 C 0.39235 0.126938 0.417176   -0.068212
 C 0.393984 0.99457 0.450798   -0.072293
 C 0.481998 0.947702 0.322423   -0.077374
 O 0.3501 0.46739 0.727067   -0.693981
 O 0.385548 0.430152 0.846572   -0.736562
 O 0.647986 0.514428 0.508575   -0.774218
 O 0.68497 0.498926 0.893203   -0.715392
 O 0.765662 0.447222 0.403253   -0.631492
 O 0.723802 0.429532 0.013748   -0.6899
 O 0.53018 0.651072 0.772817   -0.705752
 O 0.568096 0.616042 0.653194   -0.727481
 O 0.487196 0.35194 0.991284   -0.77779
 O 0.502656 0.315416 0.606558   -0.714966
 O 0.552056 0.233522 0.097322   -0.628265
 O 0.569348 0.276508 0.486044   -0.692543
 O 0.650674 0.530676 0.273033   -0.705015
 O 0.615904 0.56816 0.153342   -0.730873
 O 0.352052 0.486766 0.491817   -0.774542
 O 0.315722 0.500922 0.10645   -0.825004
 O 0.233464 0.552404 0.597442   -0.635719
 O 0.27664 0.569692 0.0   -0.638595
 O 0.468036 0.35017 0.22719   -0.694333
 O 0.429834 0.385912 0.346675   -0.728706
 O 0.51424 0.647998 0.009132   -0.762895
 O 0.498456 0.684956 0.393099   -0.713225
 O 0.449288 0.765406 0.902927   -0.648034
 O 0.42946 0.72355 0.51366   -0.697766
