#{'_ref': 'TBD', '_srcid': 'CAKYAQ_clean', 'submitters': [{'name': 'Dalar Nazarian Jeff Camp and David Sholl', 'email': 'dalar@gatech.edu jcamp6@gatech.edu'}], '_method': 'VASP DFT with PBE;DDEC'}
data_SrH2C6SO4
_symmetry_space_group_name_H-M   'P 1'
_cell_length_a   6.04500001
_cell_length_b   14.04100000
_cell_length_c   15.63350027
_cell_angle_alpha   90.03199856
_cell_angle_beta   90.64799849
_cell_angle_gamma   90.00300459
_symmetry_Int_Tables_number   1
_chemical_formula_structural   SrH2C6SO4
_chemical_formula_sum   'Sr4 H8 C24 S4 O16'
_cell_volume   1326.85274221
_cell_formula_units_Z   4
loop_
 _symmetry_equiv_pos_site_id
 _symmetry_equiv_pos_as_xyz
  1  'x, y, z'
loop_
 _atom_site_label
 _atom_site_fract_x
 _atom_site_fract_y
 _atom_site_fract_z
 _atom_site_charge
 Sr 0.266708 0.008454 0.061262   1.617884
 Sr 0.233404 0.508167 0.438574   1.617631
 Sr 0.733376 0.991532 0.93874   1.61791
 Sr 0.766674 0.491822 0.561428   1.617622
 H 0.84748 0.300824 0.67902   0.109496
 H 0.823112 0.183344 0.80893   0.088702
 H 0.652176 0.799225 0.822236   0.110732
 H 0.676848 0.682523 0.691644   0.088306
 H 0.152614 0.699163 0.320982   0.109428
 H 0.176976 0.816644 0.191072   0.088825
 H 0.347892 0.200762 0.177766   0.11073
 H 0.323218 0.317464 0.308358   0.088586
 C 0.228496 0.132496 0.897062   0.781136
 C 0.180236 0.196624 0.82467   -0.212964
 C 0.976172 0.214778 0.786574   -0.051494
 C 0.989642 0.278637 0.717368   -0.076317
 C 0.204062 0.310144 0.703752   -0.203781
 C 0.287636 0.377331 0.638356   0.791402
 C 0.271598 0.632379 0.602938   0.781197
 C 0.319784 0.695862 0.67585   -0.213418
 C 0.523722 0.713793 0.714128   -0.050917
 C 0.510146 0.777259 0.78369   -0.076575
 C 0.295658 0.808606 0.797438   -0.205105
 C 0.212058 0.875666 0.862984   0.794198
 C 0.771578 0.867491 0.10294   0.780939
 C 0.819842 0.803363 0.175334   -0.21288
 C 0.023916 0.78521 0.213426   -0.051792
 C 0.010434 0.72135 0.282634   -0.075934
 C 0.796014 0.689843 0.296248   -0.204148
 C 0.712436 0.622657 0.361646   0.791394
 C 0.728466 0.367611 0.397064   0.781523
 C 0.680282 0.304125 0.324152   -0.213471
 C 0.476344 0.286193 0.285874   -0.051205
 C 0.489922 0.222727 0.216312   -0.07674
 C 0.704412 0.191381 0.202564   -0.204525
 C 0.788014 0.124324 0.137018   0.793904
 S 0.388232 0.260151 0.776064   0.184162
 S 0.11159 0.758909 0.724878   0.184194
 S 0.611842 0.739838 0.22394   0.184376
 S 0.888476 0.241079 0.275126   0.183967
 O 0.428866 0.116036 0.91856   -0.738838
 O 0.064212 0.095907 0.93688   -0.785826
 O 0.49435 0.394719 0.639574   -0.723185
 O 0.147356 0.412895 0.58524   -0.780356
 O 0.071198 0.616058 0.581366   -0.738988
 O 0.435824 0.59623 0.562738   -0.785651
 O 0.00476 0.89166 0.862882   -0.724124
 O 0.352966 0.912727 0.91503   -0.781535
 O 0.57121 0.883952 0.081442   -0.738743
 O 0.935854 0.904084 0.06312   -0.785704
 O 0.50572 0.605272 0.360426   -0.723425
 O 0.852714 0.587091 0.414762   -0.780134
 O 0.928866 0.383934 0.418632   -0.739018
 O 0.564238 0.40376 0.43726   -0.785861
 O 0.995332 0.108328 0.137114   -0.724244
 O 0.647106 0.087265 0.08497   -0.781345
