#{'_ref': 'TBD', '_srcid': 'CAKYAQ_clean', 'submitters': [{'name': 'Dalar Nazarian Jeff Camp and David Sholl', 'email': 'dalar@gatech.edu jcamp6@gatech.edu'}], '_method': 'VASP DFT with PBE;DDEC'}
data_AgH5C9S(NO)2
_symmetry_space_group_name_H-M   'P 1'
_cell_length_a   7.57999967
_cell_length_b   10.52249999
_cell_length_c   13.26000000
_cell_angle_alpha   90.01399928
_cell_angle_beta   90.03799814
_cell_angle_gamma   90.10199874
_symmetry_Int_Tables_number   1
_chemical_formula_structural   AgH5C9S(NO)2
_chemical_formula_sum   'Ag4 H20 C36 S4 N8 O8'
_cell_volume   1057.62290526
_cell_formula_units_Z   4
loop_
 _symmetry_equiv_pos_site_id
 _symmetry_equiv_pos_as_xyz
  1  'x, y, z'
loop_
 _atom_site_label
 _atom_site_fract_x
 _atom_site_fract_y
 _atom_site_fract_z
 _atom_site_charge
 Ag 0.213278 0.121716 0.306752   0.404068
 Ag 0.2888 0.879176 0.805986   0.403585
 Ag 0.787186 0.621414 0.195184   0.403572
 Ag 0.711594 0.379348 0.694875   0.404467
 H 0.03577 0.602404 0.367972   0.180245
 H 0.222954 0.344192 0.688477   0.144151
 H 0.235372 0.174478 0.818041   0.096949
 H 0.059564 0.901406 0.614732   0.101862
 H 0.024572 0.0599 0.478822   0.132848
 H 0.46178 0.398152 0.868184   0.180818
 H 0.2771 0.656986 0.188496   0.144084
 H 0.266502 0.826754 0.318219   0.097366
 H 0.442954 0.099026 0.115774   0.101829
 H 0.476814 0.940496 0.978911   0.132845
 H 0.96497 0.102752 0.134325   0.180331
 H 0.777726 0.844372 0.813633   0.143761
 H 0.765296 0.674724 0.683927   0.097074
 H 0.940496 0.4019 0.886578   0.10202
 H 0.97577 0.560348 0.023085   0.13182
 H 0.538222 0.89722 0.632796   0.180769
 H 0.723414 0.156542 0.312458   0.143659
 H 0.734194 0.326574 0.182924   0.097348
 H 0.557434 0.59826 0.386075   0.102046
 H 0.523644 0.43928 0.522342   0.131917
 C 0.107538 0.395932 0.223226   0.596885
 C 0.10388 0.400804 0.337642   0.060523
 C 0.066604 0.507188 0.394608   -0.227809
 C 0.112082 0.314014 0.492946   0.115114
 C 0.122728 0.217108 0.571771   0.096484
 C 0.177886 0.248314 0.669969   -0.200435
 C 0.188422 0.153186 0.74222   0.134708
 C 0.091768 0.000976000000001 0.628906   0.136676
 C 0.07541 0.09007 0.552212   -0.197014
 C 0.392362 0.604278 0.723419   0.596221
 C 0.395258 0.59997 0.837814   0.06229
 C 0.43157 0.493458 0.894844   -0.228028
 C 0.387532 0.686888 0.993021   0.114482
 C 0.377766 0.783772 0.071838   0.0959
 C 0.32271 0.752722 0.170043   -0.200754
 C 0.313246 0.847844 0.242358   0.133968
 C 0.410714 0.999722 0.12907   0.137043
 C 0.426086 0.910598 0.05233   -0.196561
 C 0.892622 0.895892 0.278973   0.595831
 C 0.896404 0.90086 0.164564   0.062192
 C 0.933812 0.007394 0.107725   -0.228334
 C 0.888338 0.814224 0.009173   0.114802
 C 0.877756 0.717396 0.93026   0.09416
 C 0.822712 0.74858 0.832076   -0.198707
 C 0.812184 0.65348 0.759742   0.132926
 C 0.908708 0.501396 0.872939   0.135463
 C 0.925044 0.590464 0.949714   -0.194555
 C 0.60799 0.104216 0.777413   0.597467
 C 0.604992 0.099254 0.663107   0.061774
 C 0.568428 0.992596 0.606182   -0.227832
 C 0.612776 0.185982 0.507908   0.114634
 C 0.622628 0.282938 0.429175   0.095175
 C 0.677768 0.252144 0.330964   -0.199602
 C 0.687336 0.347404 0.258792   0.133475
 C 0.58987 0.498906 0.372281   0.135918
 C 0.57439 0.409618 0.448878   -0.194738
 S 0.064616 0.471924 0.520292   0.191276
 S 0.433708 0.528822 0.020473   0.191858
 S 0.93597 0.972268 0.98202   0.190953
 S 0.566256 0.027802 0.480514   0.191939
 N 0.130438 0.292848 0.394683   -0.260166
 N 0.149466 0.029918 0.722946   -0.310138
 N 0.36953 0.708104 0.894725   -0.260798
 N 0.353102 0.97095 0.223105   -0.310818
 N 0.869846 0.792904 0.107404   -0.260204
 N 0.851056 0.53029 0.778922   -0.308878
 N 0.630888 0.207376 0.606159   -0.261337
 N 0.647516 0.470376 0.278224   -0.309514
 O 0.139564 0.289762 0.182089   -0.595447
 O 0.074688 0.49983 0.17799   -0.600549
 O 0.363424 0.710398 0.681479   -0.59577
 O 0.422956 0.49946 0.679043   -0.599919
 O 0.860418 0.789668 0.320057   -0.595111
 O 0.925518 0.999866 0.324252   -0.599989
 O 0.636888 0.210918 0.81854   -0.595603
 O 0.577542 0.999828 0.822542   -0.600962
