#{'_ref': 'TBD', '_srcid': 'CAKYAQ_clean', 'submitters': [{'name': 'Dalar Nazarian Jeff Camp and David Sholl', 'email': 'dalar@gatech.edu jcamp6@gatech.edu'}], '_method': 'VASP DFT with PBE;DDEC'}
data_ZnHC5O4
_symmetry_space_group_name_H-M   'P 1'
_cell_length_a   5.94500001
_cell_length_b   7.47400032
_cell_length_c   15.58605019
_cell_angle_alpha   89.78704383
_cell_angle_beta   86.32046734
_cell_angle_gamma   89.55699779
_symmetry_Int_Tables_number   1
_chemical_formula_structural   ZnHC5O4
_chemical_formula_sum   'Zn4 H4 C20 O16'
_cell_volume   691.082066872
_cell_formula_units_Z   4
loop_
 _symmetry_equiv_pos_site_id
 _symmetry_equiv_pos_as_xyz
  1  'x, y, z'
loop_
 _atom_site_label
 _atom_site_fract_x
 _atom_site_fract_y
 _atom_site_fract_z
 _atom_site_charge
 Zn 0.749254 0.000132000000001 0.750214   1.101388
 Zn 0.250694 0.015488 0.249822   1.101727
 Zn 0.250009 0.3988 0.749923   1.140495
 Zn 0.749978 0.616818 0.250108   1.140317
 H 0.933228 0.18567 0.47878   0.129932
 H 0.569306 0.18562 0.023334   0.130694
 H 0.430639 0.829994 0.976703   0.130407
 H 0.06671 0.829948 0.521256   0.130028
 C 0.961409 0.327674 0.488433   -0.044515
 C 0.540011 0.327682 0.012771   -0.044716
 C 0.544973 0.394622 0.928809   -0.074287
 C 0.006797 0.435782 0.415909   -0.117317
 C 0.505063 0.578526 0.915355   -0.117215
 C 0.04529 0.61953 0.428166   -0.073363
 C 0.525934 0.668496 0.828292   0.707531
 C 0.08463 0.753228 0.356812   0.674912
 C 0.58423 0.259534 0.858316   0.67602
 C 0.028554 0.345374 0.329324   0.707403
 C 0.459933 0.687934 0.987267   -0.044869
 C 0.038533 0.687942 0.511603   -0.044454
 C 0.993147 0.579834 0.584127   -0.11775
 C 0.454972 0.620994 0.071228   -0.073093
 C 0.954654 0.396088 0.57187   -0.073959
 C 0.494883 0.43709 0.084683   -0.117888
 C 0.915318 0.262388 0.643224   0.675005
 C 0.474016 0.34712 0.171746   0.707738
 C 0.971394 0.670242 0.670712   0.706602
 C 0.415718 0.756082 0.141722   0.673797
 O 0.772914 0.179936 0.849798   -0.552782
 O 0.091349 0.18281 0.331959   -0.59356
 O 0.419463 0.21838 0.812835   -0.626213
 O 0.989364 0.428792 0.26019   -0.625495
 O 0.58814 0.830338 0.830334   -0.594443
 O 0.274011 0.829332 0.347479   -0.553453
 O 0.486643 0.585766 0.759411   -0.625232
 O 0.919036 0.79699 0.311762   -0.625489
 O 0.908585 0.832802 0.668079   -0.592749
 O 0.227033 0.835678 0.150241   -0.551166
 O 0.010597 0.586826 0.739845   -0.625087
 O 0.580491 0.797238 0.187199   -0.626347
 O 0.725938 0.186284 0.652556   -0.553347
 O 0.411806 0.18528 0.169704   -0.594517
 O 0.080911 0.218626 0.688275   -0.625531
 O 0.513318 0.42985 0.240626   -0.625162
