#{'_ref': 'TBD', '_srcid': 'CAKYAQ_clean', 'submitters': [{'name': 'Dalar Nazarian Jeff Camp and David Sholl', 'email': 'dalar@gatech.edu jcamp6@gatech.edu'}], '_method': 'VASP DFT with PBE;DDEC'}
data_CuH16C16S2I
_symmetry_space_group_name_H-M   'P 1'
_cell_length_a   7.39950000
_cell_length_b   12.88900016
_cell_length_c   20.85000000
_cell_angle_alpha   90.00000000
_cell_angle_beta   90.00099887
_cell_angle_gamma   90.05600220
_symmetry_Int_Tables_number   1
_chemical_formula_structural   CuH16C16S2I
_chemical_formula_sum   'Cu4 H64 C64 S8 I4'
_cell_volume   1988.5085165
_cell_formula_units_Z   4
loop_
 _symmetry_equiv_pos_site_id
 _symmetry_equiv_pos_as_xyz
  1  'x, y, z'
loop_
 _atom_site_label
 _atom_site_fract_x
 _atom_site_fract_y
 _atom_site_fract_z
 _atom_site_charge
 Cu 0.25824 0.160679 0.250019   0.074514
 Cu 0.241704 0.662031 0.750014   0.074683
 Cu 0.741636 0.839424 0.75001   0.074357
 Cu 0.758322 0.337983 0.250022   0.074724
 H 0.381506 0.837351 0.108531   0.107489
 H 0.520738 0.755989 0.013175   0.099108
 H 0.2814 0.989112 0.892584   0.097322
 H 0.148284 0.073098 0.988301   0.100171
 H 0.10275 0.085838 0.099641   0.113585
 H 0.122304 0.973869 0.14787   0.125726
 H 0.382484 0.231592 0.095791   0.107451
 H 0.575434 0.214763 0.144829   0.102566
 H 0.11791 0.337595 0.89134   0.107493
 H 0.97903 0.255853 0.986633   0.098681
 H 0.218584 0.489008 0.107374   0.097699
 H 0.351622 0.573252 0.011697   0.099733
 H 0.397082 0.586237 0.900344   0.113278
 H 0.377162 0.474382 0.852029   0.125946
 H 0.117514 0.732004 0.904294   0.10719
 H 0.924504 0.715056 0.855372   0.102866
 H 0.618446 0.162661 0.608557   0.107333
 H 0.479276 0.244051 0.513199   0.099109
 H 0.718412 0.010823 0.392643   0.097213
 H 0.851672 0.926908 0.48836   0.100149
 H 0.896866 0.914069 0.599742   0.113365
 H 0.877676 0.026139 0.6479   0.125724
 H 0.61757 0.768612 0.595908   0.107674
 H 0.42443 0.785359 0.644865   0.102733
 H 0.881956 0.662469 0.391329   0.107486
 H 0.021066 0.744123 0.486635   0.098669
 H 0.781452 0.510965 0.607334   0.09761
 H 0.648278 0.426778 0.511655   0.09981
 H 0.60255 0.413889 0.40038   0.113175
 H 0.622698 0.525673 0.352024   0.125754
 H 0.882522 0.267987 0.404412   0.106802
 H 0.075466 0.284972 0.355396   0.102416
 H 0.618478 0.162677 0.891477   0.107499
 H 0.47923 0.244053 0.986823   0.099177
 H 0.71846 0.010908 0.10743   0.097405
 H 0.851678 0.926948 0.011721   0.100205
 H 0.897164 0.914165 0.900369   0.113606
 H 0.87769 0.026146 0.852152   0.125597
 H 0.617362 0.768429 0.904175   0.107486
 H 0.424408 0.785352 0.855156   0.102655
 H 0.881912 0.662471 0.108724   0.107148
 H 0.021082 0.744148 0.013383   0.098725
 H 0.781366 0.51104 0.892686   0.097564
 H 0.648262 0.426807 0.988356   0.099718
 H 0.602788 0.413818 0.099711   0.113068
 H 0.622806 0.525641 0.148045   0.125779
 H 0.882312 0.268094 0.095652   0.107406
 H 0.075556 0.284939 0.144695   0.10254
 H 0.381574 0.837332 0.391503   0.107424
 H 0.520764 0.755986 0.48687   0.099034
 H 0.281364 0.989121 0.607415   0.097254
 H 0.148282 0.073098 0.511689   0.100288
 H 0.102734 0.085828 0.400429   0.113536
 H 0.12224 0.973902 0.352163   0.125545
 H 0.382564 0.231599 0.404284   0.107685
 H 0.575474 0.214738 0.355231   0.102597
 H 0.117918 0.337571 0.608716   0.107381
 H 0.97881 0.255964 0.513372   0.098631
 H 0.218472 0.489082 0.392715   0.09739
 H 0.351634 0.573261 0.488394   0.099759
 H 0.397324 0.586186 0.599632   0.113124
 H 0.377294 0.474432 0.648025   0.125729
 H 0.117476 0.732067 0.595616   0.106773
 H 0.924528 0.715093 0.644624   0.102405
 C 0.356466 0.870259 0.061108   -0.142084
 C 0.434758 0.824156 0.007284   -0.144418
 C 0.413498 0.86804 0.94613   0.101331
 C 0.301534 0.955023 0.939904   -0.133177
 C 0.227126 0.002239 0.993795   -0.123076
 C 0.257724 0.962657 0.055467   0.091422
 C 0.19488 0.022793 0.113106   -0.209618
 C 0.485088 0.174941 0.110657   -0.187
 C 0.143126 0.370421 0.93878   -0.142242
 C 0.064996 0.324096 0.992593   -0.143702
 C 0.086368 0.36788 0.053779   0.101434
 C 0.198348 0.454978 0.060035   -0.134479
 C 0.272726 0.502331 0.006159   -0.121245
 C 0.241856 0.462935 0.94445   0.090152
 C 0.304756 0.523208 0.886837   -0.208741
 C 0.01485 0.675266 0.889446   -0.187174
 C 0.643498 0.129766 0.561131   -0.142002
 C 0.56522 0.175869 0.507308   -0.144501
 C 0.586442 0.131952 0.446181   0.101379
 C 0.698346 0.044942 0.43996   -0.133126
 C 0.77284 0.997771 0.493856   -0.122682
 C 0.742222 0.037358 0.555507   0.091205
 C 0.80494 0.97723 0.613167   -0.209242
 C 0.514812 0.825203 0.610717   -0.188447
 C 0.856812 0.62961 0.438766   -0.142344
 C 0.935016 0.675888 0.492583   -0.143539
 C 0.913672 0.632091 0.553746   0.101101
 C 0.801672 0.545005 0.559999   -0.134409
 C 0.727232 0.497678 0.506125   -0.121345
 C 0.758 0.537125 0.444447   0.090455
 C 0.695014 0.476843 0.386854   -0.208662
 C 0.985056 0.324771 0.389513   -0.186112
 C 0.643506 0.129775 0.938902   -0.14201
 C 0.565206 0.175885 0.992722   -0.144605
 C 0.586414 0.131994 0.053875   0.101201
 C 0.69836 0.045004 0.060109   -0.13374
 C 0.772836 0.997806 0.006223   -0.122857
 C 0.742264 0.037384 0.944549   0.091369
 C 0.80507 0.977231 0.886912   -0.209273
 C 0.514798 0.825121 0.889338   -0.187754
 C 0.856768 0.629634 0.061281   -0.141493
 C 0.934966 0.675929 0.007471   -0.144049
 C 0.913626 0.632135 0.946284   0.101146
 C 0.80161 0.545051 0.940029   -0.134519
 C 0.727208 0.497707 0.993904   -0.121119
 C 0.758012 0.537127 0.055611   0.090223
 C 0.69516 0.476827 0.113217   -0.208632
 C 0.985028 0.324778 0.110538   -0.187214
 C 0.356518 0.870242 0.438926   -0.142176
 C 0.434788 0.824156 0.492763   -0.144186
 C 0.413512 0.868054 0.553898   0.101322
 C 0.301536 0.955035 0.560097   -0.132987
 C 0.227108 0.002232 0.506205   -0.123495
 C 0.25775 0.962635 0.44456   0.091552
 C 0.194852 0.022791 0.386937   -0.208819
 C 0.485122 0.174928 0.389404   -0.187634
 C 0.143108 0.370415 0.561278   -0.142034
 C 0.06495 0.324131 0.507453   -0.143656
 C 0.08628 0.367938 0.446289   0.10089
 C 0.198264 0.455038 0.44005   -0.133971
 C 0.272728 0.502343 0.493923   -0.121297
 C 0.241892 0.462912 0.555603   0.09034
 C 0.304926 0.523213 0.613182   -0.20838
 C 0.014914 0.675297 0.610513   -0.186194
 S 0.37965 0.076664 0.162432   0.034164
 S 0.120174 0.577205 0.837547   0.033567
 S 0.620036 0.923561 0.662502   0.034747
 S 0.87958 0.422738 0.337588   0.033402
 S 0.620246 0.923435 0.837583   0.034395
 S 0.879782 0.422793 0.162469   0.03367
 S 0.379606 0.076687 0.337623   0.033847
 S 0.120386 0.577325 0.662436   0.033225
 I 0.894514 0.144748 0.249992   -0.355008
 I 0.60559 0.645707 0.750037   -0.355819
 I 0.105552 0.855291 0.750061   -0.355037
 I 0.394498 0.354354 0.250048   -0.355951
