#{'_ref': 'TBD', '_srcid': 'CAKYAQ_clean', 'submitters': [{'name': 'Dalar Nazarian Jeff Camp and David Sholl', 'email': 'dalar@gatech.edu jcamp6@gatech.edu'}], '_method': 'VASP DFT with PBE;DDEC'}
data_ZnH10C17NO4
_symmetry_space_group_name_H-M   'P 1'
_cell_length_a   13.23400013
_cell_length_b   13.27500012
_cell_length_c   14.00300000
_cell_angle_alpha   83.84799899
_cell_angle_beta   78.34400211
_cell_angle_gamma   88.40800087
_symmetry_Int_Tables_number   1
_chemical_formula_structural   ZnH10C17NO4
_chemical_formula_sum   'Zn4 H40 C68 N4 O16'
_cell_volume   2395.41252432
_cell_formula_units_Z   4
loop_
 _symmetry_equiv_pos_site_id
 _symmetry_equiv_pos_as_xyz
  1  'x, y, z'
loop_
 _atom_site_label
 _atom_site_fract_x
 _atom_site_fract_y
 _atom_site_fract_z
 _atom_site_charge
 Zn 0.853354 0.671009 0.32542   0.875619
 Zn 0.879518 0.675508 0.120195   0.876445
 Zn 0.146647 0.329004 0.674613   0.913983
 Zn 0.120483 0.324505 0.879837   0.889263
 H 0.219095 0.680683 0.034923   0.104937
 H 0.409082 0.679878 0.021297   0.115116
 H 0.173 0.667895 0.348524   0.111965
 H 0.561713 0.676688 0.101621   0.118158
 H 0.516825 0.664168 0.414721   0.117192
 H 0.326104 0.66254 0.429491   0.112039
 H 0.85371 0.0 0.348679   0.109749
 H 0.895212 0.189287 0.018132   0.120622
 H 0.892411 0.000877000000003 0.036358   0.107417
 H 0.883926 0.35108 0.094938   0.112344
 H 0.848064 0.345656 0.407067   0.099816
 H 0.845382 0.157015 0.425459   0.108799
 H 0.884255 0.831692 0.948691   0.103266
 H 0.876595 0.838112 0.771934   0.133981
 H 0.852911 0.511236 0.812485   0.114173
 H 0.870017 0.518522 0.985155   0.105949
 H 0.787105 0.821241 0.655141   0.137023
 H 0.785294 0.813491 0.478088   0.110581
 H 0.912054 0.525452 0.482289   0.094159
 H 0.927531 0.522304 0.656987   0.139683
 H 0.780906 0.319329 0.96511   0.10627
 H 0.590919 0.320135 0.978736   0.118748
 H 0.827 0.332115 0.651509   0.113124
 H 0.438287 0.323326 0.898412   0.120402
 H 0.483175 0.335844 0.585313   0.119593
 H 0.673896 0.337472 0.570542   0.112818
 H 0.146293 0.005691 0.651354   0.108558
 H 0.104787 0.810726 0.981901   0.121749
 H 0.107587 0.999135 0.963675   0.105768
 H 0.116074 0.648932 0.905095   0.113082
 H 0.15194 0.654357 0.592966   0.099989
 H 0.154623 0.842997 0.574573   0.109087
 H 0.115745 0.16832 0.051342   0.103057
 H 0.123406 0.1619 0.228099   0.133578
 H 0.147091 0.488776 0.187548   0.117046
 H 0.129984 0.481491 0.014877   0.106446
 H 0.212897 0.178772 0.344891   0.136374
 H 0.214707 0.186522 0.521944   0.109605
 H 0.087948 0.474561 0.517743   0.094109
 H 0.072471 0.477709 0.343045   0.139448
 C 0.069949 0.67292 0.201188   0.642378
 C 0.184793 0.674243 0.19343   -0.110976
 C 0.252256 0.677814 0.100216   -0.073873
 C 0.357508 0.677293 0.092954   -0.146931
 C 0.40126 0.673668 0.178016   0.068563
 C 0.333495 0.669934 0.272563   0.067378
 C 0.225621 0.670332 0.277529   -0.114999
 C 0.509139 0.67389 0.172636   -0.117642
 C 0.549883 0.671089 0.256525   -0.081003
 C 0.482778 0.666907 0.349892   -0.072608
 C 0.377405 0.666163 0.357594   -0.157659
 C 0.664803 0.672627 0.248283   0.660857
 C 0.869755 0.872911 0.203956   0.662154
 C 0.871608 0.98671 0.194415   -0.088104
 C 0.861899 0.037883 0.277011   -0.117555
 C 0.862435 0.14504 0.26964   0.06108
 C 0.872915 0.201017 0.174454   0.06042
 C 0.884127 0.146828 0.0906   -0.152944
 C 0.883414 0.042537 0.100422   -0.068072
 C 0.87432 0.308208 0.166982   -0.110835
 C 0.86576 0.359404 0.249423   -0.097547
 C 0.855037 0.303657 0.343376   -0.070466
 C 0.853544 0.199448 0.353118   -0.158317
 C 0.868227 0.473086 0.240363   0.65208
 C 0.877763 0.762821 0.914606   0.140135
 C 0.871777 0.765368 0.816562   -0.202768
 C 0.863892 0.674337 0.776153   0.108231
 C 0.858478 0.672563 0.671999   0.131007
 C 0.861923 0.584081 0.838411   -0.174557
 C 0.869798 0.587264 0.93525   0.145786
 C 0.817901 0.75471 0.619611   -0.211512
 C 0.815149 0.750828 0.521489   0.133173
 C 0.886983 0.589637 0.523819   0.136665
 C 0.893581 0.58822 0.621602   -0.202704
 C 0.930051 0.327103 0.798845   0.632456
 C 0.815208 0.325762 0.806603   -0.109765
 C 0.747744 0.3222 0.899816   -0.069346
 C 0.642493 0.322719 0.907079   -0.144077
 C 0.598741 0.326346 0.822016   0.070927
 C 0.666505 0.330077 0.72747   0.066476
 C 0.77438 0.32968 0.722503   -0.110151
 C 0.490861 0.326122 0.827398   -0.119487
 C 0.450117 0.328927 0.743508   -0.072714
 C 0.517222 0.333104 0.650141   -0.070944
 C 0.622595 0.333849 0.642439   -0.156384
 C 0.335197 0.327382 0.75175   0.660886
 C 0.130245 0.127102 0.796077   0.663187
 C 0.128392 0.013302 0.805618   -0.090094
 C 0.138104 0.962129 0.723022   -0.12221
 C 0.137566 0.854973 0.730393   0.064715
 C 0.127087 0.798995 0.825579   0.060755
 C 0.115872 0.853184 0.909433   -0.154318
 C 0.116586 0.957476 0.899611   -0.068263
 C 0.12568 0.691804 0.833051   -0.11288
 C 0.134241 0.640608 0.75061   -0.098298
 C 0.144966 0.696356 0.656657   -0.070662
 C 0.146461 0.800564 0.646915   -0.160178
 C 0.13178 0.526926 0.75967   0.653275
 C 0.122237 0.237192 0.085427   0.140138
 C 0.128223 0.234645 0.183471   -0.203781
 C 0.13611 0.325676 0.22388   0.109214
 C 0.141524 0.32745 0.328033   0.129095
 C 0.138079 0.415931 0.161622   -0.175981
 C 0.130203 0.412749 0.064782   0.146413
 C 0.182101 0.245303 0.380421   -0.212544
 C 0.184852 0.249184 0.478543   0.133739
 C 0.113019 0.410376 0.476214   0.137271
 C 0.106421 0.411793 0.378431   -0.203285
 N 0.877688 0.675256 0.973224   -0.266318
 N 0.849381 0.669673 0.473822   -0.253847
 N 0.122312 0.324757 0.026808   -0.271667
 N 0.150621 0.33034 0.526211   -0.25747
 O 0.036717 0.680452 0.121257   -0.567057
 O 0.01433 0.662146 0.287256   -0.590927
 O 0.720312 0.670844 0.162901   -0.586439
 O 0.697994 0.675537 0.327346   -0.577592
 O 0.86225 0.826749 0.289738   -0.589332
 O 0.87578 0.831045 0.125205   -0.577244
 O 0.854667 0.514776 0.319979   -0.5802
 O 0.884359 0.519453 0.154203   -0.581646
 O 0.963284 0.319557 0.878776   -0.547298
 O 0.0 0.337863 0.712777   -0.639081
 O 0.279688 0.329168 0.837132   -0.588127
 O 0.302006 0.324474 0.672688   -0.581379
 O 0.13775 0.173264 0.710295   -0.594349
 O 0.124219 0.168967 0.874828   -0.582041
 O 0.145338 0.485236 0.680053   -0.584662
 O 0.115639 0.480559 0.84583   -0.58647
