#{'_ref': 'TBD', '_srcid': 'CAKYAQ_clean', 'submitters': [{'name': 'Dalar Nazarian Jeff Camp and David Sholl', 'email': 'dalar@gatech.edu jcamp6@gatech.edu'}], '_method': 'VASP DFT with PBE;DDEC'}
data_ZnH14C26(NO3)2
_symmetry_space_group_name_H-M   'P 1'
_cell_length_a   15.34499998
_cell_length_b   15.37099973
_cell_length_c   22.38300000
_cell_angle_alpha   84.31499840
_cell_angle_beta   87.39400119
_cell_angle_gamma   81.03099832
_symmetry_Int_Tables_number   1
_chemical_formula_structural   ZnH14C26(NO3)2
_chemical_formula_sum   'Zn4 H56 C104 N8 O24'
_cell_volume   5186.80998495
_cell_formula_units_Z   4
loop_
 _symmetry_equiv_pos_site_id
 _symmetry_equiv_pos_as_xyz
  1  'x, y, z'
loop_
 _atom_site_label
 _atom_site_fract_x
 _atom_site_fract_y
 _atom_site_fract_z
 _atom_site_charge
 Zn 0.300036 0.107158 0.320569   0.88631
 Zn 0.30503 0.12565 0.195056   0.904209
 Zn 0.699979 0.892859 0.679427   0.878636
 Zn 0.695041 0.874362 0.804941   0.880093
 H 0.2252 0.241832 0.089598   0.110406
 H 0.225123 0.23953 0.977632   0.157369
 H 0.407601 0.0 0.0   0.159254
 H 0.40085 0.007449 0.107906   0.101505
 H 0.533392 0.111565 0.803621   0.117653
 H 0.530629 0.107324 0.692142   0.116698
 H 0.092738 0.096743 0.71244   0.13126
 H 0.094872 0.10365 0.824275   0.132947
 H 0.207985 0.214128 0.526397   0.15865
 H 0.207231 0.211394 0.414453   0.111612
 H 0.396849 0.987146 0.419267   0.109656
 H 0.405644 0.980563 0.530996   0.158369
 H 0.27176 0.857987 0.167726   0.114773
 H 0.265891 0.697466 0.16637   0.110203
 H 0.33446 0.655278 0.352768   0.111556
 H 0.33586 0.816457 0.353918   0.113916
 H 0.347727 0.562003 0.167194   0.1066
 H 0.342661 0.401183 0.1664   0.111062
 H 0.246396 0.389209 0.349275   0.104222
 H 0.246719 0.55078 0.350239   0.106471
 H 0.019839 0.187405 0.165062   0.110343
 H 0.85805 0.187458 0.164946   0.106981
 H 0.867053 0.064928 0.347175   0.108418
 H 0.027247 0.070389 0.347078   0.11713
 H 0.750781 0.111395 0.160502   0.105828
 H 0.589725 0.105145 0.160938   0.108068
 H 0.571692 0.125601 0.350568   0.108919
 H 0.732031 0.135105 0.351143   0.112306
 H 0.774829 0.758164 0.910409   0.111556
 H 0.774881 0.760477 0.022374   0.157815
 H 0.592393 0.005194 0.002294   0.160875
 H 0.599162 0.99254 0.892082   0.101961
 H 0.466598 0.888457 0.196376   0.116089
 H 0.46936 0.892726 0.307853   0.115007
 H 0.907257 0.903258 0.287555   0.131182
 H 0.905116 0.896374 0.175718   0.132959
 H 0.792018 0.785881 0.473612   0.158519
 H 0.792781 0.788642 0.58555   0.111512
 H 0.603145 0.012877 0.580727   0.110568
 H 0.594348 0.019445 0.468997   0.1585
 H 0.728254 0.142042 0.832283   0.112947
 H 0.734107 0.302567 0.833634   0.108116
 H 0.665528 0.34474 0.647239   0.1086
 H 0.664136 0.18356 0.646092   0.112678
 H 0.652269 0.438032 0.832808   0.106385
 H 0.657348 0.59885 0.833599   0.109805
 H 0.753619 0.610809 0.650723   0.103156
 H 0.753277 0.449239 0.649762   0.106594
 H 0.0 0.812627 0.834934   0.112558
 H 0.141964 0.812593 0.835063   0.107743
 H 0.132974 0.935123 0.65283   0.108764
 H 0.972787 0.929634 0.652915   0.120392
 H 0.249252 0.888619 0.839509   0.105369
 H 0.410308 0.894867 0.839074   0.108887
 H 0.428322 0.874467 0.649434   0.109138
 H 0.267984 0.86496 0.648863   0.112411
 C 0.264809 0.188816 0.067036   0.146266
 C 0.265076 0.187242 0.005094   -0.246082
 C 0.3165 0.116753 0.979264   0.272957
 C 0.366609 0.050833 0.015976   -0.238365
 C 0.363023 0.05758 0.077567   0.154573
 C 0.233048 0.1108 0.889911   0.503681
 C 0.233652 0.10785 0.824167   -0.125083
 C 0.313264 0.108207 0.789756   0.061426
 C 0.394478 0.109907 0.81697   -0.132905
 C 0.398369 0.109643 0.882806   0.512992
 C 0.471601 0.110477 0.781943   -0.015307
 C 0.470055 0.108694 0.719455   -0.024518
 C 0.391552 0.105227 0.691876   -0.125569
 C 0.311912 0.105079 0.72642   0.067494
 C 0.23128 0.100692 0.699529   -0.119835
 C 0.153731 0.100682 0.734311   -0.044336
 C 0.154989 0.104295 0.796541   -0.04154
 C 0.228603 0.094986 0.634236   0.497102
 C 0.392409 0.101689 0.626116   0.511063
 C 0.307131 0.097259 0.536968   0.279751
 C 0.250603 0.162869 0.504208   -0.245109
 C 0.249522 0.161444 0.442347   0.14817
 C 0.355824 0.035837 0.444769   0.153423
 C 0.360595 0.032502 0.506908   -0.247703
 C 0.307353 0.944188 0.261148   0.634841
 C 0.304437 0.847263 0.260766   -0.115562
 C 0.285454 0.812731 0.207962   -0.05227
 C 0.282962 0.72278 0.207419   -0.156995
 C 0.299927 0.664172 0.259476   0.080784
 C 0.319243 0.699481 0.312189   -0.15773
 C 0.321103 0.789542 0.312937   -0.050004
 C 0.297489 0.56855 0.258795   0.068337
 C 0.323649 0.524969 0.206985   -0.157123
 C 0.321652 0.43492 0.20636   -0.057926
 C 0.29405 0.385275 0.257713   -0.099285
 C 0.267962 0.428021 0.30954   -0.053041
 C 0.269245 0.518223 0.309981   -0.15894
 C 0.294149 0.287776 0.257427   0.666763
 C 0.131285 0.129411 0.256049   0.663493
 C 0.033532 0.129483 0.256155   -0.09814
 C 0.985171 0.161418 0.204793   -0.057552
 C 0.894729 0.160246 0.204862   -0.154702
 C 0.849685 0.12626 0.256046   0.056154
 C 0.899015 0.094119 0.307343   -0.154434
 C 0.989322 0.095981 0.307454   -0.057664
 C 0.753976 0.123191 0.255866   0.075342
 C 0.711915 0.115589 0.202396   -0.1574
 C 0.622082 0.111082 0.202358   -0.057159
 C 0.571195 0.113448 0.255901   -0.101972
 C 0.612133 0.121946 0.309343   -0.062233
 C 0.701837 0.126733 0.309343   -0.159274
 C 0.474673 0.107203 0.256328   0.644436
 C 0.735215 0.811182 0.932965   0.146528
 C 0.73493 0.812762 0.994908   -0.245646
 C 0.683497 0.883248 0.020736   0.278445
 C 0.633395 0.949163 0.984018   -0.247276
 C 0.63699 0.942417 0.922425   0.160553
 C 0.766949 0.889225 0.110082   0.504421
 C 0.766339 0.892139 0.175829   -0.125368
 C 0.686727 0.891799 0.210242   0.061744
 C 0.605521 0.890064 0.183025   -0.13216
 C 0.601624 0.890348 0.117187   0.512241
 C 0.528392 0.889548 0.218051   -0.015082
 C 0.529936 0.891336 0.28054   -0.024734
 C 0.608444 0.894773 0.308122   -0.125246
 C 0.688083 0.894929 0.273577   0.067672
 C 0.768723 0.89928 0.300469   -0.119826
 C 0.846262 0.899332 0.265681   -0.04419
 C 0.845 0.895713 0.203452   -0.041185
 C 0.771392 0.905019 0.365759   0.49725
 C 0.607591 0.898313 0.373882   0.511599
 C 0.692868 0.902753 0.463032   0.279716
 C 0.749399 0.837146 0.495794   -0.245333
 C 0.750487 0.838587 0.557654   0.147245
 C 0.644175 0.964186 0.555227   0.153219
 C 0.639399 0.967512 0.493088   -0.247626
 C 0.692657 0.055833 0.738867   0.644481
 C 0.695573 0.152761 0.739246   -0.116453
 C 0.714556 0.187297 0.792047   -0.054993
 C 0.717035 0.277251 0.792587   -0.157058
 C 0.700062 0.335855 0.740529   0.074912
 C 0.680748 0.300538 0.687818   -0.156901
 C 0.678897 0.210475 0.687072   -0.056784
 C 0.702511 0.431475 0.741208   0.071768
 C 0.676352 0.475061 0.793016   -0.15782
 C 0.678351 0.565109 0.79364   -0.057876
 C 0.705947 0.614749 0.742283   -0.103335
 C 0.732045 0.572 0.690458   -0.052176
 C 0.730756 0.481799 0.69002   -0.160766
 C 0.705889 0.71224 0.74257   0.666877
 C 0.868752 0.870571 0.743939   0.661463
 C 0.96649 0.870571 0.743844   -0.0995
 C 0.014849 0.838617 0.795205   -0.04081
 C 0.105288 0.839796 0.795144   -0.170085
 C 0.150338 0.873773 0.743959   0.056541
 C 0.101015 0.905918 0.692658   -0.153128
 C 0.010709 0.904055 0.692543   -0.057206
 C 0.246042 0.876866 0.744144   0.07477
 C 0.288118 0.884435 0.797616   -0.156464
 C 0.377952 0.888939 0.797652   -0.057675
 C 0.428831 0.886579 0.744104   -0.101584
 C 0.387885 0.878098 0.690661   -0.061706
 C 0.298178 0.873326 0.690664   -0.159373
 C 0.525348 0.892865 0.743666   0.64452
 N 0.312806 0.125101 0.102772   -0.263986
 N 0.316331 0.112482 0.915356   -0.274891
 N 0.309745 0.097649 0.601051   -0.279446
 N 0.30117 0.099152 0.41304   -0.264584
 N 0.687215 0.874895 0.897228   -0.262023
 N 0.683671 0.8875 0.084645   -0.276932
 N 0.690257 0.90234 0.39895   -0.279531
 N 0.698834 0.900879 0.586958   -0.261619
 O 0.166252 0.111035 0.92202   -0.447889
 O 0.467225 0.107646 0.909104   -0.453707
 O 0.161312 0.087982 0.608783   -0.443542
 O 0.458983 0.103315 0.593788   -0.446852
 O 0.433333 0.111448 0.306882   -0.581024
 O 0.441438 0.097793 0.206647   -0.591447
 O 0.169212 0.151522 0.206252   -0.589824
 O 0.168967 0.106221 0.305982   -0.587454
 O 0.321989 0.971913 0.311055   -0.562154
 O 0.296526 0.0 0.211199   -0.616589
 O 0.277515 0.244757 0.30718   -0.593709
 O 0.311905 0.25509 0.207258   -0.587753
 O 0.833752 0.888961 0.077977   -0.447706
 O 0.53277 0.892331 0.09089   -0.453138
 O 0.838689 0.912004 0.391211   -0.443097
 O 0.541018 0.896675 0.406209   -0.447636
 O 0.56669 0.888543 0.693115   -0.578063
 O 0.558597 0.902299 0.793337   -0.588939
 O 0.830832 0.848484 0.793745   -0.586717
 O 0.831051 0.893825 0.69402   -0.584794
 O 0.678015 0.028102 0.688964   -0.578901
 O 0.703532 0.008498 0.788809   -0.583848
 O 0.722507 0.755259 0.692814   -0.592763
 O 0.688094 0.744942 0.79273   -0.584841
