#{'_ref': 'TBD', '_srcid': 'CAKYAQ_clean', 'submitters': [{'name': 'Dalar Nazarian Jeff Camp and David Sholl', 'email': 'dalar@gatech.edu jcamp6@gatech.edu'}], '_method': 'VASP DFT with PBE;DDEC'}
data_YH3(C3O2)3
_symmetry_space_group_name_H-M   'P 1'
_cell_length_a   8.75381291
_cell_length_b   9.01039248
_cell_length_c   14.89902849
_cell_angle_alpha   90.00539936
_cell_angle_beta   90.02046208
_cell_angle_gamma   90.00456303
_symmetry_Int_Tables_number   1
_chemical_formula_structural   YH3(C3O2)3
_chemical_formula_sum   'Y4 H12 C36 O24'
_cell_volume   1175.16510996
_cell_formula_units_Z   4
loop_
 _symmetry_equiv_pos_site_id
 _symmetry_equiv_pos_as_xyz
  1  'x, y, z'
loop_
 _atom_site_label
 _atom_site_fract_x
 _atom_site_fract_y
 _atom_site_fract_z
 _atom_site_charge
 Y 0.999202 0.500464 0.793036   2.094245
 Y 0.500685 0.000433000000001 0.293032   2.093725
 Y 0.000601000000003 0.000394 0.986467   2.094952
 Y 0.499076 0.500394 0.486462   2.094119
 H 0.181439 0.149198 0.778839   0.103257
 H 0.249709 0.735857 0.639508   0.113962
 H 0.31739 0.149612 0.500574   0.103152
 H 0.318119 0.649103 0.278872   0.103543
 H 0.249927 0.235781 0.139488   0.113736
 H 0.182529 0.64953 0.000490999999997   0.103462
 H 0.816995 0.851319 0.77904   0.102782
 H 0.749738 0.265008 0.63999   0.112388
 H 0.681464 0.851648 0.500646   0.102856
 H 0.682364 0.351208 0.278908   0.103619
 H 0.750044 0.764944 0.140002   0.113293
 H 0.818296 0.351629 0.000642999999997   0.103028
 C 0.249296 0.167713 0.639691   -0.190181
 C 0.21044 0.08939 0.717652   0.02301
 C 0.209527 0.933928 0.717565   -0.182653
 C 0.249664 0.85669 0.63955   0.02702
 C 0.28968 0.934161 0.561619   -0.182572
 C 0.288475 0.089626 0.561703   0.023241
 C 0.249091 0.334154 0.639703   0.8315
 C 0.160682 0.849803 0.799423   0.799402
 C 0.339064 0.850572 0.479672   0.800959
 C 0.250351 0.66762 0.139683   -0.189233
 C 0.289172 0.589296 0.217664   0.022669
 C 0.29005 0.433836 0.217582   -0.182079
 C 0.250018 0.356612 0.139532   0.027122
 C 0.210055 0.434077 0.061578   -0.183088
 C 0.211337 0.58954 0.061647   0.022675
 C 0.250665 0.834051 0.1397   0.830689
 C 0.339029 0.349728 0.299433   0.800601
 C 0.160886 0.350474 0.979598   0.80035
 C 0.749185 0.83322 0.639851   -0.197391
 C 0.79739 0.920493 0.717883   0.017792
 C 0.789541 0.066745 0.717926   -0.164768
 C 0.749592 0.144178 0.639958   0.02795
 C 0.709563 0.066954 0.561907   -0.183201
 C 0.710377 0.911486 0.561851   0.021579
 C 0.748883 0.666789 0.639888   0.830328
 C 0.838799 0.15037 0.799907   0.799213
 C 0.660688 0.151124 0.480048   0.801194
 C 0.750445 0.333154 0.139785   -0.18897
 C 0.71124 0.411211 0.217777   0.023152
 C 0.710047 0.566648 0.217873   -0.182881
 C 0.750043 0.644112 0.139939   0.027816
 C 0.790203 0.56692 0.061917   -0.182813
 C 0.789264 0.411455 0.061819   0.022167
 C 0.75072 0.166717 0.139793   0.830055
 C 0.66078 0.650301 0.299829   0.800445
 C 0.839171 0.651078 0.980117   0.800988
 O 0.334589 0.401516 0.584065   -0.727544
 O 0.163319 0.401347 0.695256   -0.727958
 O 0.147498 0.919807 0.873137   -0.71995
 O 0.132892 0.712083 0.790831   -0.734734
 O 0.366338 0.712653 0.487743   -0.735346
 O 0.352965 0.921296 0.406275   -0.720027
 O 0.165261 0.90145 0.084001   -0.727714
 O 0.336246 0.9012 0.195418   -0.726954
 O 0.366889 0.212032 0.290837   -0.734556
 O 0.352094 0.419708 0.37317   -0.719869
 O 0.14715 0.421162 0.90617   -0.719776
 O 0.133419 0.212608 0.987685   -0.735213
 O 0.663102 0.599552 0.584316   -0.726533
 O 0.834506 0.599493 0.695519   -0.727272
 O 0.852512 0.079705 0.873349   -0.719781
 O 0.86635 0.28822 0.791764   -0.735266
 O 0.632847 0.288822 0.488657   -0.736207
 O 0.647663 0.08124 0.406281   -0.718992
 O 0.83669 0.099568 0.084326   -0.726949
 O 0.665046 0.099339 0.195335   -0.727315
 O 0.633473 0.788178 0.291717   -0.735581
 O 0.646927 0.579597 0.37324   -0.719092
 O 0.852454 0.58117 0.906382   -0.7204
 O 0.8669 0.788807 0.988737   -0.735175
