#{'_ref': 'TBD', '_srcid': 'CAKYAQ_clean', 'submitters': [{'name': 'Dalar Nazarian Jeff Camp and David Sholl', 'email': 'dalar@gatech.edu jcamp6@gatech.edu'}], '_method': 'VASP DFT with PBE;DDEC'}
data_CaH8C10(NO3)2
_symmetry_space_group_name_H-M   'P 1'
_cell_length_a   16.16700018
_cell_length_b   16.49000000
_cell_length_c   16.49199996
_cell_angle_alpha   98.47200166
_cell_angle_beta   93.82699865
_cell_angle_gamma   93.83499963
_symmetry_Int_Tables_number   1
_chemical_formula_structural   CaH8C10(NO3)2
_chemical_formula_sum   'Ca12 H96 C120 N24 O72'
_cell_volume   4325.86196695
_cell_formula_units_Z   12
loop_
 _symmetry_equiv_pos_site_id
 _symmetry_equiv_pos_as_xyz
  1  'x, y, z'
loop_
 _atom_site_label
 _atom_site_fract_x
 _atom_site_fract_y
 _atom_site_fract_z
 _atom_site_charge
 Ca 0.388042 0.275546 0.110931   1.57337
 Ca 0.395974 0.332362 0.358676   1.509873
 Ca 0.814845 0.06527 0.490127   1.57205
 Ca 0.111879 0.888427 0.723571   1.572783
 Ca 0.104199 0.640251 0.665914   1.50855
 Ca 0.685028 0.509635 0.933956   1.575723
 Ca 0.611858 0.723471 0.888446   1.572819
 Ca 0.60424 0.665933 0.640337   1.50821
 Ca 0.184934 0.934078 0.509775   1.575519
 Ca 0.888272 0.110645 0.276069   1.573554
 Ca 0.895889 0.358555 0.332273   1.508635
 Ca 0.314586 0.489246 0.064806   1.570658
 H 0.453587 0.262093 0.726328   0.11183
 H 0.279941 0.258357 0.514545   0.116694
 H 0.22633 0.108663 0.701566   0.123107
 H 0.433653 0.062142 0.906332   0.13368
 H 0.33158 0.026381 0.924627   0.126355
 H 0.559759 0.390021 0.527001   0.130279
 H 0.623713 0.380581 0.616071   0.119038
 H 0.082954 0.131493 0.403973   0.12262
 H 0.043733 0.229176 0.425017   0.156347
 H 0.360731 0.908669 0.341775   0.130189
 H 0.505565 0.845684 0.549323   0.086744
 H 0.619847 0.0 0.392815   0.103244
 H 0.589274 0.150335 0.211238   0.153968
 H 0.4891 0.103832 0.175203   0.149882
 H 0.250689 0.703774 0.530275   0.150153
 H 0.317778 0.709317 0.619566   0.155005
 H 0.784194 0.932214 0.622239   0.114518
 H 0.719636 0.933907 0.705151   0.150186
 H 0.277703 0.075319 0.811089   0.280151
 H 0.495041 0.367248 0.687845   0.300755
 H 0.138703 0.260794 0.532759   0.309694
 H 0.595399 0.067495 0.316769   0.279995
 H 0.417771 0.782863 0.566812   0.280784
 H 0.61724 0.842236 0.595274   0.274206
 H 0.045659 0.27296 0.736929   0.11181
 H 0.219296 0.484614 0.739407   0.115969
 H 0.273065 0.298454 0.890097   0.125084
 H 0.066082 0.093423 0.93712   0.134447
 H 0.168227 0.074817 0.972454   0.128684
 H 0.938876 0.471991 0.608846   0.126962
 H 0.875046 0.382451 0.617061   0.119282
 H 0.416504 0.595184 0.869401   0.120722
 H 0.455485 0.576075 0.771499   0.153875
 H 0.139666 0.657661 0.090686   0.131188
 H 0.994387 0.450302 0.153713   0.08788
 H 0.880451 0.606988 0.004092   0.09245
 H 0.910676 0.787414 0.84834   0.15566
 H 0.010706 0.824087 0.894859   0.149228
 H 0.249173 0.469063 0.295679   0.145723
 H 0.182074 0.379755 0.289989   0.153955
 H 0.71591 0.377744 0.065762   0.104016
 H 0.780114 0.294441 0.063058   0.140467
 H 0.222061 0.18857 0.923762   0.281284
 H 0.003186 0.311128 0.632161   0.302092
 H 0.361189 0.467843 0.738246   0.310042
 H 0.904648 0.682834 0.932068   0.288183
 H 0.082189 0.432545 0.216441   0.279773
 H 0.88267 0.403438 0.156005   0.267658
 H 0.545702 0.737023 0.273051   0.112109
 H 0.719294 0.739667 0.484729   0.11572
 H 0.773028 0.890324 0.298516   0.125163
 H 0.565986 0.937154 0.093468   0.134663
 H 0.668138 0.972338 0.074671   0.128491
 H 0.438907 0.608934 0.472134   0.127236
 H 0.375032 0.617259 0.382678   0.120057
 H 0.91644 0.869386 0.595329   0.120594
 H 0.955372 0.771476 0.576023   0.154662
 H 0.639506 0.090627 0.657811   0.131104
 H 0.49431 0.153812 0.450554   0.088973
 H 0.380339 0.003966 0.60704   0.092575
 H 0.41055 0.848092 0.787377   0.155862
 H 0.510483 0.894698 0.824187   0.14915
 H 0.749153 0.295729 0.4693   0.145566
 H 0.682162 0.28988 0.37992   0.154119
 H 0.215837 0.065875 0.37796   0.103366
 H 0.280054 0.062979 0.294657   0.141514
 H 0.721993 0.923857 0.188535   0.281322
 H 0.503145 0.632587 0.311341   0.302983
 H 0.861069 0.738447 0.467806   0.31024
 H 0.404515 0.931983 0.682969   0.288638
 H 0.582236 0.21632 0.432642   0.280238
 H 0.382627 0.156064 0.403613   0.267331
 H 0.953562 0.726247 0.262093   0.112802
 H 0.779816 0.514465 0.258314   0.116942
 H 0.726351 0.701552 0.108665   0.123217
 H 0.933627 0.906403 0.062285   0.133674
 H 0.831562 0.924694 0.026517   0.126425
 H 0.059688 0.526943 0.390054   0.127067
 H 0.123656 0.61601 0.380554   0.113943
 H 0.582953 0.403686 0.131557   0.122403
 H 0.542962 0.425387 0.228766   0.155981
 H 0.860717 0.341655 0.908588   0.138813
 H 0.005583 0.549265 0.845638   0.086748
 H 0.119828 0.392693 0.0   0.095431
 H 0.089183 0.210958 0.150112   0.154003
 H 0.988949 0.174985 0.103654   0.150544
 H 0.750698 0.530208 0.703782   0.149806
 H 0.81783 0.619478 0.709253   0.155216
 H 0.284194 0.622178 0.93214   0.114893
 H 0.219682 0.705121 0.933886   0.149559
 H 0.777671 0.81112 0.075404   0.279755
 H 0.0 0.687798 0.367251   0.300345
 H 0.638196 0.532772 0.260442   0.309988
 H 0.095301 0.316667 0.067532   0.281724
 H 0.917803 0.566738 0.78282   0.281066
 H 0.117215 0.595304 0.84222   0.273794
 C 0.342997 0.185526 0.722769   -0.083243
 C 0.394324 0.242928 0.690964   -0.05146
 C 0.372132 0.269583 0.616642   -0.120674
 C 0.295289 0.240075 0.574393   -0.063439
 C 0.242984 0.182827 0.605738   -0.118782
 C 0.267468 0.154324 0.679292   -0.044872
 C 0.378004 0.16205 0.80255   0.496519
 C 0.369629 0.079825 0.911041   -0.157156
 C 0.371526 0.148148 0.984976   0.675932
 C 0.432358 0.320932 0.576523   0.567214
 C 0.565945 0.404895 0.594323   -0.139945
 C 0.575897 0.498579 0.616118   0.6626
 C 0.164797 0.146554 0.555817   0.588047
 C 0.057525 0.17401 0.451993   -0.192168
 C 0.974493 0.135592 0.471431   0.73738
 C 0.489188 0.956036 0.357398   -0.109464
 C 0.419827 0.909237 0.377685   0.004304
 C 0.425095 0.868009 0.446236   -0.117319
 C 0.501203 0.87289 0.493266   -0.051599
 C 0.571034 0.9177 0.473049   -0.083024
 C 0.564589 0.958974 0.404913   -0.033926
 C 0.475641 0.010092 0.292036   0.515812
 C 0.529168 0.12827 0.230996   -0.20028
 C 0.491431 0.203826 0.274475   0.745798
 C 0.348275 0.828037 0.475022   0.559084
 C 0.291955 0.746613 0.575361   -0.208257
 C 0.237749 0.806224 0.62225   0.730074
 C 0.65028 0.931396 0.526828   0.49377
 C 0.733974 0.89767 0.646898   -0.204884
 C 0.763758 0.81448 0.664813   0.708482
 C 0.156369 0.276867 0.81336   -0.083027
 C 0.10493 0.308406 0.755844   -0.052267
 C 0.12709 0.382511 0.728704   -0.119533
 C 0.203986 0.424867 0.757963   -0.067455
 C 0.256288 0.39385 0.815437   -0.125012
 C 0.231883 0.320461 0.844303   -0.039507
 C 0.121545 0.197213 0.837225   0.497134
 C 0.130019 0.088611 0.919218   -0.157395
 C 0.127861 0.014852 0.850634   0.679081
 C 0.066911 0.422362 0.676989   0.565505
 C 0.933015 0.404697 0.593457   -0.139097
 C 0.92395 0.383622 0.499656   0.660194
 C 0.33428 0.443878 0.852026   0.584868
 C 0.441957 0.54793 0.826034   -0.188325
 C 0.525183 0.528367 0.863969   0.737721
 C 0.01118 0.642249 0.043263   -0.123708
 C 0.080485 0.621878 0.090117   0.009042
 C 0.075064 0.553328 0.131395   -0.113913
 C 0.998882 0.506335 0.126451   -0.048299
 C 0.929139 0.526657 0.081594   -0.10988
 C 0.935708 0.594842 0.040407   -0.036482
 C 0.024728 0.707377 0.988878   0.525819
 C 0.97087 0.768051 0.870645   -0.202477
 C 0.00891 0.724368 0.795361   0.742758
 C 0.151795 0.524441 0.171435   0.558853
 C 0.207978 0.423995 0.252768   -0.204698
 C 0.262262 0.377113 0.193185   0.728299
 C 0.849848 0.472962 0.067623   0.552723
 C 0.766001 0.352474 0.09987   -0.184069
 C 0.736117 0.333749 0.182679   0.712074
 C 0.656378 0.813493 0.276948   -0.084595
 C 0.604953 0.755973 0.308516   -0.052791
 C 0.627099 0.72889 0.382643   -0.119018
 C 0.703984 0.758203 0.424982   -0.067426
 C 0.756268 0.815705 0.393953   -0.125295
 C 0.731868 0.844516 0.320545   -0.038483
 C 0.621535 0.837271 0.197267   0.496481
 C 0.629888 0.919175 0.088593   -0.156872
 C 0.627593 0.850473 0.014924   0.678774
 C 0.56694 0.677148 0.422513   0.565217
 C 0.433014 0.593634 0.404843   -0.13991
 C 0.423967 0.49983 0.383649   0.659459
 C 0.834259 0.852304 0.443995   0.584761
 C 0.941878 0.826093 0.547998   -0.190297
 C 0.025149 0.864042 0.52849   0.739133
 C 0.511058 0.043165 0.642352   -0.12264
 C 0.580337 0.090063 0.622026   0.007639
 C 0.574939 0.131395 0.553521   -0.114769
 C 0.4988 0.126472 0.506532   -0.051684
 C 0.429055 0.081562 0.526801   -0.107624
 C 0.435601 0.040309 0.594937   -0.036937
 C 0.52458 0.988778 0.707452   0.526603
 C 0.470754 0.870501 0.768103   -0.202703
 C 0.508877 0.795296 0.724397   0.743769
 C 0.651704 0.171461 0.524706   0.561257
 C 0.708035 0.252732 0.424236   -0.204083
 C 0.762424 0.19313 0.377531   0.726562
 C 0.349788 0.067639 0.4731   0.552275
 C 0.26597 0.099891 0.352641   -0.185678
 C 0.236175 0.182695 0.333803   0.712424
 C 0.842964 0.722762 0.185578   -0.08421
 C 0.894272 0.690916 0.24295   -0.049608
 C 0.87205 0.61658 0.269589   -0.114785
 C 0.795195 0.574331 0.24006   -0.064276
 C 0.742921 0.605713 0.182827   -0.118712
 C 0.767446 0.679283 0.154351   -0.043158
 C 0.877972 0.802562 0.162121   0.496342
 C 0.869595 0.911098 0.079953   -0.157249
 C 0.871496 0.985019 0.148295   0.676405
 C 0.932285 0.576456 0.320921   0.549811
 C 0.06589 0.594276 0.404896   -0.133777
 C 0.075872 0.616104 0.49857   0.661574
 C 0.664787 0.555795 0.146352   0.589058
 C 0.557232 0.451993 0.173513   -0.191065
 C 0.47446 0.471062 0.134288   0.736006
 C 0.0 0.357308 0.955966   -0.111464
 C 0.919808 0.37759 0.909168   -0.009607
 C 0.92508 0.446159 0.86796   -0.122659
 C 0.001213 0.493198 0.872835   -0.047422
 C 0.071033 0.472982 0.917632   -0.081786
 C 0.064588 0.40483 0.958895   -0.019773
 C 0.975574 0.291888 0.009981   0.509122
 C 0.029064 0.230756 0.128151   -0.204072
 C 0.991372 0.274104 0.203814   0.74684
 C 0.848286 0.47495 0.82799   0.561735
 C 0.791998 0.575301 0.746579   -0.208523
 C 0.737846 0.622241 0.806212   0.730225
 C 0.150268 0.526773 0.931289   0.489784
 C 0.233988 0.646868 0.897619   -0.204432
 C 0.263755 0.664815 0.814444   0.708695
 N 0.336135 0.101379 0.83408   -0.385998
 N 0.495329 0.364268 0.625654   -0.374491
 N 0.119811 0.199807 0.520085   -0.36906
 N 0.540923 0.064137 0.28128   -0.382844
 N 0.359902 0.784072 0.537311   -0.356707
 N 0.660732 0.888273 0.588857   -0.255597
 N 0.163619 0.165616 0.897733   -0.384528
 N 0.003366 0.37329 0.63448   -0.371376
 N 0.379744 0.479927 0.799326   -0.369399
 N 0.959228 0.7181 0.935056   -0.388605
 N 0.140058 0.462068 0.215296   -0.359857
 N 0.839443 0.410282 0.109902   -0.316832
 N 0.663562 0.897771 0.1656   -0.385154
 N 0.503355 0.634723 0.373466   -0.372198
 N 0.879675 0.799523 0.479977   -0.368728
 N 0.459104 0.934957 0.718206   -0.388071
 N 0.640071 0.215238 0.462259   -0.362385
 N 0.339404 0.109939 0.410444   -0.312951
 N 0.836096 0.834113 0.101478   -0.38497
 N 0.0 0.625602 0.364274   -0.378438
 N 0.619467 0.520148 0.199422   -0.37005
 N 0.040802 0.281185 0.064126   -0.379336
 N 0.85993 0.537225 0.784009   -0.355038
 N 0.160721 0.588838 0.888213   -0.256305
 O 0.444092 0.197434 0.836819   -0.504028
 O 0.319764 0.20461 0.98569   -0.713779
 O 0.423622 0.146225 0.045351   -0.67358
 O 0.426535 0.319728 0.500209   -0.610298
 O 0.645417 0.531612 0.600824   -0.679461
 O 0.517285 0.538331 0.645949   -0.685598
 O 0.143802 0.070836 0.544439   -0.620906
 O 0.94755 0.145565 0.541626   -0.645208
 O 0.931018 0.094007 0.407954   -0.82569
 O 0.407313 0.008483 0.25314   -0.501962
 O 0.492794 0.218327 0.352666   -0.66285
 O 0.458751 0.252634 0.230675   -0.758122
 O 0.276378 0.836651 0.444623   -0.628236
 O 0.178225 0.774372 0.656609   -0.745384
 O 0.250932 0.884145 0.625927   -0.736796
 O 0.704713 0.0 0.513926   -0.731484
 O 0.716028 0.750707 0.632239   -0.759703
 O 0.829843 0.816036 0.708263   -0.610507
 O 0.055334 0.162929 0.802171   -0.505782
 O 0.180225 0.01394 0.794722   -0.714128
 O 0.075125 0.95479 0.851754   -0.677594
 O 0.073313 0.498518 0.677099   -0.61376
 O 0.854806 0.399258 0.466085   -0.679201
 O 0.982869 0.35389 0.460343   -0.682398
 O 0.354732 0.454991 0.927816   -0.618383
 O 0.552103 0.458177 0.854155   -0.641738
 O 0.568837 0.591931 0.905196   -0.824477
 O 0.0931 0.746052 0.0   -0.500316
 O 0.007609 0.646164 0.781096   -0.664127
 O 0.041718 0.767994 0.746487   -0.755718
 O 0.223762 0.554813 0.162986   -0.617921
 O 0.322146 0.343321 0.225122   -0.746764
 O 0.248704 0.372851 0.115241   -0.733177
 O 0.795274 0.486447 0.014167   -0.693683
 O 0.78447 0.364612 0.246544   -0.764558
 O 0.669332 0.291323 0.180726   -0.61824
 O 0.55535 0.80214 0.163001   -0.504553
 O 0.680177 0.794751 0.013909   -0.714305
 O 0.574564 0.851321 0.95504   -0.6772
 O 0.573381 0.677144 0.498634   -0.613421
 O 0.354869 0.466182 0.399321   -0.678072
 O 0.482886 0.460612 0.353798   -0.682785
 O 0.854752 0.928101 0.455157   -0.619029
 O 0.052109 0.8542 0.458318   -0.641896
 O 0.068758 0.90531 0.592062   -0.825163
 O 0.592979 0.0 0.74609   -0.501484
 O 0.50759 0.781074 0.646202   -0.664377
 O 0.541765 0.746449 0.767997   -0.75634
 O 0.723614 0.163093 0.555241   -0.62013
 O 0.822086 0.22497 0.343349   -0.745523
 O 0.749165 0.115217 0.373863   -0.732086
 O 0.29518 0.014186 0.486538   -0.693833
 O 0.28454 0.246568 0.364653   -0.764772
 O 0.169447 0.180729 0.291301   -0.618424
 O 0.944066 0.836831 0.197495   -0.503539
 O 0.819713 0.985711 0.204744   -0.714281
 O 0.923624 0.045376 0.14643   -0.67359
 O 0.926491 0.50013 0.319692   -0.593279
 O 0.145391 0.600805 0.531588   -0.680725
 O 0.017277 0.645946 0.538339   -0.687294
 O 0.644151 0.544374 0.070585   -0.62131
 O 0.44776 0.541383 0.142672   -0.644597
 O 0.430836 0.40709 0.093803   -0.823892
 O 0.907264 0.252924 0.00819   -0.491098
 O 0.992661 0.352301 0.21835   -0.664124
 O 0.958848 0.23022 0.252645   -0.758376
 O 0.776382 0.444543 0.836599   -0.62966
 O 0.678354 0.656651 0.774385   -0.745624
 O 0.751022 0.625867 0.884113   -0.736393
 O 0.204716 0.513847 0.0   -0.732765
 O 0.216015 0.632259 0.750676   -0.759879
 O 0.329852 0.708261 0.816002   -0.611146
