#{'_ref': 'TBD', '_srcid': 'CAKYAQ_clean', 'submitters': [{'name': 'Dalar Nazarian Jeff Camp and David Sholl', 'email': 'dalar@gatech.edu jcamp6@gatech.edu'}], '_method': 'VASP DFT with PBE;DDEC'}
data_Cd2H5C7(N6O)2
_symmetry_space_group_name_H-M   'P 1'
_cell_length_a   9.88949997
_cell_length_b   14.04660527
_cell_length_c   14.04768600
_cell_angle_alpha   82.89635495
_cell_angle_beta   69.39240468
_cell_angle_gamma   69.40981767
_symmetry_Int_Tables_number   1
_chemical_formula_structural   Cd2H5C7(N6O)2
_chemical_formula_sum   'Cd8 H20 C28 N48 O8'
_cell_volume   1709.87263893
_cell_formula_units_Z   4
loop_
 _symmetry_equiv_pos_site_id
 _symmetry_equiv_pos_as_xyz
  1  'x, y, z'
loop_
 _atom_site_label
 _atom_site_fract_x
 _atom_site_fract_y
 _atom_site_fract_z
 _atom_site_charge
 Cd 0.464805 0.844842 0.588731   0.812005
 Cd 0.89832 0.155226 0.411242   0.811417
 Cd 0.690257 0.411253 0.844914   0.811944
 Cd 0.946408 0.588768 0.155222   0.812393
 Cd 0.398346 0.41124 0.15522   0.811271
 Cd 0.964821 0.588739 0.844842   0.811834
 Cd 0.446358 0.155237 0.588759   0.812411
 Cd 0.190244 0.844926 0.411228   0.812137
 H 0.802368 0.713118 0.38908   0.064332
 H 0.220688 0.163292 0.904578   0.106649
 H 0.904359 0.2871 0.610895   0.06425
 H 0.29002 0.836826 0.095332   0.106134
 H 0.484308 0.610989 0.713159   0.065872
 H 0.614618 0.095322 0.163282   0.106132
 H 0.808407 0.389319 0.287252   0.066239
 H 0.875555 0.904587 0.836726   0.106615
 H 0.404306 0.610899 0.287111   0.0642
 H 0.790479 0.095353 0.836826   0.106432
 H 0.302387 0.38907 0.713157   0.064363
 H 0.720566 0.904572 0.163272   0.106734
 H 0.308382 0.28722 0.389316   0.066252
 H 0.375135 0.836753 0.904572   0.106882
 H 0.984297 0.713155 0.610992   0.065998
 H 0.114678 0.163293 0.095323   0.106196
 H 0.863601 0.772548 0.500419   0.10647
 H 0.135836 0.227564 0.500394   0.106326
 H 0.36365 0.500418 0.772548   0.106338
 H 0.635854 0.500376 0.227568   0.10625
 C 0.702118 0.71472 0.373196   0.203236
 C 0.232115 0.092264 0.947123   -0.079255
 C 0.789838 0.28547 0.626816   0.205331
 C 0.272345 0.907828 0.052781   -0.077839
 C 0.583028 0.626821 0.714707   0.203732
 C 0.67511 0.052789 0.092257   -0.077651
 C 0.92461 0.373312 0.28554   0.204104
 C 0.821407 0.947124 0.907777   -0.078533
 C 0.289799 0.626822 0.285469   0.205422
 C 0.772679 0.0528 0.907827   -0.078143
 C 0.202128 0.373198 0.71474   0.203283
 C 0.732124 0.947114 0.09224   -0.079312
 C 0.424573 0.285543 0.37332   0.204062
 C 0.321103 0.907797 0.947114   -0.078979
 C 0.083018 0.714704 0.626814   0.203762
 C 0.175062 0.092268 0.052788   -0.077852
 C 0.822586 0.854673 0.500153   0.173542
 C 0.177053 0.145439 0.500206   0.175428
 C 0.322622 0.500144 0.854676   0.173631
 C 0.677059 0.500211 0.14544   0.175334
 C 0.360444 1.60000000022e-05 0.779754   0.689501
 C 0.303456 1.69999999997e-05 0.893687   -0.0771
 C 0.140005 6.90000000034e-05 0.220152   0.688345
 C 0.196906 5.30000000012e-05 0.106211   -0.077587
 C 0.640211 0.220163 7.2000000003e-05   0.688515
 C 0.697094 0.106227 5.50000000032e-05   -0.077958
 C 0.860521 0.779766 2.9999999995e-06   0.689766
 C 0.8036 0.893695 0.999999   -0.077368
 N 0.557103 0.767336 0.425321   -0.294008
 N 0.472074 0.751333 0.374903   -0.039581
 N 0.563221 0.691191 0.295972   -0.08562
 N 0.709737 0.66673 0.293687   -0.253351
 N 0.674741 0.912004 0.530007   -0.232992
 N 0.674112 0.008787 0.517691   -0.04267
 N 0.749471 0.232864 0.574711   -0.293742
 N 0.598042 0.248865 0.625201   -0.04135
 N 0.550234 0.308996 0.70413   -0.083763
 N 0.670058 0.333439 0.706367   -0.255147
 N 0.116767 0.088071 0.46998   -0.232509
 N 0.201005 0.991305 0.481896   -0.046316
 N 0.675402 0.574725 0.767325   -0.297387
 N 0.77654 0.625093 0.751209   -0.038399
 N 0.745576 0.703956 0.691004   -0.085716
 N 0.623484 0.706255 0.666609   -0.253029
 N 0.413111 0.469954 0.912029   -0.231055
 N 0.316953 0.481767 0.008796   -0.045592
 N 0.017586 0.425397 0.232929   -0.298173
 N 0.153074 0.37481 0.248786   -0.036362
 N 0.140785 0.295838 0.308833   -0.086681
 N 0.996476 0.293682 0.333376   -0.253319
 N 0.794932 0.530214 0.088098   -0.232548
 N 0.8078 0.517953 0.991327   -0.041661
 N 0.249445 0.574724 0.232849   -0.293509
 N 0.098058 0.625218 0.248834   -0.041594
 N 0.050221 0.704139 0.308974   -0.083908
 N 0.170026 0.70637 0.333434   -0.254991
 N 0.616738 0.470015 0.088081   -0.232334
 N 0.70096 0.481957 0.991317   -0.046005
 N 0.05711 0.425329 0.767345   -0.294045
 N 0.972065 0.37493 0.751315   -0.039425
 N 0.063209 0.296004 0.691167   -0.085765
 N 0.209738 0.293703 0.666729   -0.253222
 N 0.174773 0.530006 0.912019   -0.233021
 N 0.174148 0.517667 0.008785   -0.042419
 N 0.517523 0.232933 0.425396   -0.298058
 N 0.653006 0.248835 0.374835   -0.036807
 N 0.640732 0.308913 0.295887   -0.086355
 N 0.496444 0.333428 0.293714   -0.253476
 N 0.294899 0.088115 0.530208   -0.232827
 N 0.307804 0.991328 0.517912   -0.041387
 N 0.175434 0.767337 0.574717   -0.297618
 N 0.276557 0.751219 0.62508   -0.038113
 N 0.245581 0.690998 0.703935   -0.085664
 N 0.12346 0.666599 0.706235   -0.253061
 N 0.913087 0.912039 0.469978   -0.231118
 N 0.816922 0.00881 0.481808   -0.045287
 O 0.359515 0.925307 0.737166   -0.604846
 O 0.022024 0.074837 0.262781   -0.604952
 O 0.715668 0.262778 0.925312   -0.604949
 O 0.904005 0.73718 0.074685   -0.606483
 O 0.522265 0.262772 0.074853   -0.605045
 O 0.859595 0.737184 0.925293   -0.604845
 O 0.403973 0.074707 0.737178   -0.606257
 O 0.215466 0.925335 0.262755   -0.605137
