#{'_ref': 'TBD', '_srcid': 'CAKYAQ_clean', 'submitters': [{'name': 'Dalar Nazarian Jeff Camp and David Sholl', 'email': 'dalar@gatech.edu jcamp6@gatech.edu'}], '_method': 'VASP DFT with PBE;DDEC'}
data_Cd3H24C36(NO7)2
_symmetry_space_group_name_H-M   'P 1'
_cell_length_a   13.56300024
_cell_length_b   13.89400025
_cell_length_c   16.09000000
_cell_angle_alpha   92.11599996
_cell_angle_beta   97.13199779
_cell_angle_gamma   91.85299935
_symmetry_Int_Tables_number   1
_chemical_formula_structural   Cd3H24C36(NO7)2
_chemical_formula_sum   'Cd6 H48 C72 N4 O28'
_cell_volume   3004.47320187
_cell_formula_units_Z   2
loop_
 _symmetry_equiv_pos_site_id
 _symmetry_equiv_pos_as_xyz
  1  'x, y, z'
loop_
 _atom_site_label
 _atom_site_fract_x
 _atom_site_fract_y
 _atom_site_fract_z
 _atom_site_charge
 Cd 0.563879 0.445259 0.739497   1.085556
 Cd 0.248849 0.758714 0.239453   1.094981
 Cd 0.345156 0.669132 0.745634   1.203539
 Cd 0.436196 0.55471 0.257011   1.085957
 Cd 0.751156 0.24124 0.757044   1.094787
 Cd 0.654663 0.330467 0.250805   1.20311
 H 0.270376 0.303058 0.697218   0.113257
 H 0.091949 0.239232 0.678483   0.112647
 H 0.022913 0.453732 0.857566   0.115578
 H 0.274944 0.472958 0.987521   0.130475
 H 0.262636 0.778173 0.033813   0.122057
 H 0.170225 0.793775 0.890914   0.116646
 H 0.468256 0.280259 0.477941   0.132361
 H 0.797413 0.15954 0.427669   0.116409
 H 0.779727 0.255112 0.559039   0.125456
 H 0.647572 0.997206 0.416222   0.137278
 H 0.589268 0.906546 0.342602   0.137135
 H 0.721516 0.91333 0.367227   0.119111
 H 0.734975 0.927764 0.213107   0.116012
 H 0.602876 0.926557 0.188868   0.131949
 H 0.676414 0.027262 0.161321   0.14072
 H 0.282723 0.27205 0.192559   0.11326
 H 0.230824 0.096256 0.16605   0.120518
 H 0.46311 0.021735 0.354537   0.110722
 H 0.032323 0.660531 0.62496   0.13805
 H 0.927475 0.590467 0.650518   0.129876
 H 0.928704 0.718678 0.661943   0.114592
 H 0.907039 0.702313 0.815434   0.116044
 H 0.907308 0.574281 0.802108   0.138177
 H 0.996354 0.636096 0.878976   0.137706
 H 0.729726 0.696587 0.299564   0.111797
 H 0.908133 0.760464 0.318278   0.111766
 H 0.977163 0.546138 0.139038   0.117751
 H 0.725225 0.527008 0.009084   0.131623
 H 0.73731 0.221793 0.962653   0.131565
 H 0.82962 0.206046 0.105566   0.118391
 H 0.53183 0.719875 0.518473   0.132459
 H 0.202532 0.84004 0.568999   0.117436
 H 0.220268 0.744641 0.437541   0.126798
 H 0.352398 0.002588 0.580542   0.155624
 H 0.410799 0.093135 0.654226   0.110653
 H 0.278543 0.086421 0.629684   0.091978
 H 0.265204 0.071775 0.783798   0.070843
 H 0.397311 0.072927 0.807937   0.084728
 H 0.323779 0.0 0.835448   0.149627
 H 0.717187 0.727897 0.804046   0.112363
 H 0.769108 0.903691 0.83055   0.120479
 H 0.536946 0.978223 0.641958   0.11369
 H 0.0 0.338774 0.371628   0.132892
 H 0.072343 0.4088 0.346247   0.078021
 H 0.07097 0.280598 0.334621   0.060366
 H 0.092757 0.297119 0.181206   0.088892
 H 0.092731 0.425149 0.194685   0.109917
 H 0.003633 0.363584 0.117704   0.156318
 C 0.351421 0.451966 0.789662   0.681051
 C 0.244744 0.416898 0.784248   -0.153481
 C 0.21451 0.336021 0.731049   -0.060843
 C 0.116668 0.300511 0.721028   -0.10992
 C 0.047446 0.343434 0.767025   -0.029062
 C 0.077425 0.423066 0.820966   -0.147108
 C 0.174674 0.462159 0.829101   0.060819
 C 0.942006 0.304734 0.759245   0.622614
 C 0.199364 0.549549 0.885438   0.06353
 C 0.25048 0.542587 0.965708   -0.0874
 C 0.273303 0.624113 0.01906   -0.056149
 C 0.244381 0.714877 0.99207   -0.067367
 C 0.19268 0.723267 0.912369   -0.105014
 C 0.169447 0.641096 0.859188   -0.193406
 C 0.329608 0.612932 0.104398   0.659919
 C 0.122474 0.651335 0.770858   0.463279
 C 0.609129 0.333158 0.602736   0.650029
 C 0.622343 0.273136 0.525782   -0.052956
 C 0.539607 0.252361 0.466206   -0.087433
 C 0.547458 0.197901 0.392821   0.042759
 C 0.641607 0.164201 0.379427   -0.191117
 C 0.724895 0.184972 0.439188   -0.096317
 C 0.715413 0.238973 0.512323   -0.063633
 C 0.652955 0.11657 0.296337   0.458568
 C 0.654478 0.956023 0.358155   -0.263344
 C 0.669673 0.97295 0.207876   -0.243317
 C 0.432809 0.349795 0.294254   0.672869
 C 0.404906 0.244405 0.285247   -0.15387
 C 0.322319 0.215963 0.226939   -0.064815
 C 0.293487 0.119299 0.212335   -0.101037
 C 0.345056 0.049169 0.258621   -0.033993
 C 0.426381 0.077298 0.317498   -0.1374
 C 0.458787 0.173907 0.33055   0.053727
 C 0.312588 0.944765 0.247246   0.620652
 C 0.975319 0.655395 0.667129   -0.242668
 C 0.954833 0.639851 0.816539   -0.258837
 C 0.648637 0.547841 0.206899   0.682611
 C 0.755348 0.582843 0.212434   -0.154529
 C 0.78558 0.663681 0.265682   -0.063956
 C 0.883416 0.699207 0.275706   -0.109445
 C 0.952616 0.656391 0.229618   -0.026479
 C 0.922658 0.576752 0.175675   -0.145873
 C 0.825408 0.537655 0.167524   0.06221
 C 0.058017 0.695195 0.237334   0.62237
 C 0.800696 0.450299 0.111148   0.060701
 C 0.749621 0.457344 0.030868   -0.090716
 C 0.726754 0.37586 0.977471   -0.050237
 C 0.755587 0.285057 0.0   -0.06646
 C 0.807236 0.276584 0.084137   -0.116482
 C 0.830498 0.358709 0.137368   -0.165222
 C 0.670463 0.38709 0.892132   0.657519
 C 0.877377 0.348338 0.22571   0.378993
 C 0.390905 0.666841 0.393741   0.649823
 C 0.377697 0.726826 0.470713   -0.049705
 C 0.46045 0.747661 0.530258   -0.090189
 C 0.452571 0.802037 0.603679   0.042748
 C 0.358381 0.835561 0.617146   -0.168385
 C 0.275077 0.814737 0.557417   -0.094488
 C 0.284587 0.760826 0.484242   -0.06473
 C 0.347034 0.883044 0.700289   0.378083
 C 0.345563 0.043692 0.638663   -0.248736
 C 0.330489 0.026564 0.788937   -0.165861
 C 0.567166 0.650174 0.702263   0.673839
 C 0.595066 0.755557 0.7113   -0.154753
 C 0.677627 0.783987 0.769639   -0.06761
 C 0.706468 0.880645 0.784244   -0.101593
 C 0.654945 0.950772 0.737919   -0.032339
 C 0.573642 0.922656 0.679014   -0.136585
 C 0.54123 0.826051 0.665959   0.053572
 C 0.687444 0.055161 0.749309   0.61955
 C 0.024435 0.34394 0.329507   -0.127929
 C 0.045088 0.359672 0.18015   -0.239381
 N 0.023059 0.650052 0.753458   0.008594
 N 0.661895 0.020775 0.289313   0.008685
 N 0.0 0.349494 0.243172   -0.018051
 N 0.338176 0.0 0.707443   -0.002762
 O 0.17763 0.661177 0.712771   -0.569728
 O 0.37614 0.538918 0.81615   -0.657059
 O 0.412246 0.391816 0.76772   -0.556352
 O 0.354011 0.886101 0.299134   -0.612053
 O 0.244943 0.91906 0.187958   -0.601633
 O 0.524473 0.366995 0.608363   -0.56198
 O 0.683526 0.349955 0.65966   -0.648577
 O 0.353739 0.528558 0.124655   -0.572448
 O 0.352685 0.687805 0.152568   -0.652846
 O 0.911856 0.241805 0.701685   -0.60761
 O 0.886918 0.33754 0.81225   -0.608148
 O 0.524912 0.378927 0.30913   -0.662378
 O 0.363358 0.408222 0.285026   -0.544222
 O 0.654081 0.168332 0.232559   -0.564269
 O 0.82215 0.33845 0.283742   -0.493221
 O 0.623885 0.460889 0.180433   -0.654411
 O 0.587828 0.608072 0.228748   -0.558453
 O 0.646001 0.113854 0.697451   -0.608343
 O 0.755135 0.080818 0.808567   -0.602632
 O 0.47557 0.633032 0.388089   -0.564213
 O 0.316494 0.650041 0.336835   -0.645541
 O 0.646318 0.471463 0.871891   -0.574992
 O 0.647402 0.312231 0.843936   -0.650465
 O 0.088146 0.758172 0.294859   -0.608425
 O 0.113078 0.662461 0.184276   -0.606053
 O 0.475073 0.621038 0.687353   -0.65954
 O 0.636634 0.591763 0.711504   -0.547267
 O 0.345855 0.831136 0.763975   -0.493207
