#{'_ref': 'TBD', '_srcid': 'CAKYAQ_clean', 'submitters': [{'name': 'Dalar Nazarian Jeff Camp and David Sholl', 'email': 'dalar@gatech.edu jcamp6@gatech.edu'}], '_method': 'VASP DFT with PBE;DDEC'}
data_CdH22C28S2(N3O)2
_symmetry_space_group_name_H-M   'P 1'
_cell_length_a   10.94999951
_cell_length_b   13.17999989
_cell_length_c   13.82100000
_cell_angle_alpha   61.78199933
_cell_angle_beta   71.83199995
_cell_angle_gamma   89.86799932
_symmetry_Int_Tables_number   1
_chemical_formula_structural   CdH22C28S2(N3O)2
_chemical_formula_sum   'Cd2 H44 C56 S4 N12 O4'
_cell_volume   1644.70139254
_cell_formula_units_Z   2
loop_
 _symmetry_equiv_pos_site_id
 _symmetry_equiv_pos_as_xyz
  1  'x, y, z'
loop_
 _atom_site_label
 _atom_site_fract_x
 _atom_site_fract_y
 _atom_site_fract_z
 _atom_site_charge
 Cd 0.750072 0.9156 0.000802   0.80174
 Cd 0.250188 0.084401 0.998685   0.801847
 H 0.902294 0.784441 0.867103   0.090694
 H 0.894152 0.711262 0.73045   0.12536
 H 0.706216 0.741285 0.658521   0.108557
 H 0.552198 0.903703 0.86812   0.096446
 H 0.40638 0.812759 0.791252   0.07241
 H 0.503584 0.944233 0.665044   0.068055
 H 0.542586 0.748928 0.481993   0.120237
 H 0.415208 0.79584 0.349959   0.100736
 H 0.224286 0.896288 0.374621   0.101682
 H 0.294032 0.909581 0.659507   0.121793
 H 0.1112 0.988401 0.60634   0.072204
 H 0.599042 0.652282 0.131266   0.09062
 H 0.607912 0.443022 0.26564   0.125209
 H 0.79561 0.400119 0.337833   0.107743
 H 0.94823 0.770068 0.132454   0.096983
 H 0.095746 0.601011 0.206788   0.072913
 H 0.999834 0.610141 0.331914   0.068206
 H 0.95644 0.232245 0.519508   0.12072
 H 0.085256 0.148573 0.650493   0.100505
 H 0.276212 0.272826 0.625484   0.100556
 H 0.207418 0.568222 0.339461   0.122467
 H 0.390324 0.593833 0.392489   0.071744
 H 0.09799 0.215282 0.132654   0.09037
 H 0.106376 0.288635 0.269122   0.125373
 H 0.294716 0.259078 0.340522   0.108639
 H 0.448634 0.096866 0.130708   0.095855
 H 0.594526 0.186872 0.207272   0.073179
 H 0.496892 0.056476 0.334682   0.068518
 H 0.458442 0.252465 0.515986   0.119482
 H 0.584572 0.204574 0.649114   0.101171
 H 0.775112 0.10351 0.625284   0.101919
 H 0.707452 0.091618 0.338993   0.122038
 H 0.889394 0.0119 0.393224   0.071954
 H 0.401056 0.347868 0.867584   0.090536
 H 0.391784 0.556977 0.733107   0.12535
 H 0.203456 0.599485 0.661759   0.108544
 H 0.051106 0.229489 0.868047   0.096486
 H 0.9052 0.400687 0.792759   0.073544
 H 0.000708000000003 0.389637 0.6687   0.0688
 H 0.042114 0.767198 0.481752   0.120503
 H 0.915574 0.851765 0.34899   0.100285
 H 0.724456 0.727285 0.374512   0.101319
 H 0.794258 0.432104 0.660003   0.122325
 H 0.610932 0.406283 0.607462   0.071543
 C 0.82135 0.793071 0.835178   0.112286
 C 0.816276 0.753172 0.759477   -0.151675
 C 0.711482 0.769533 0.719691   -0.055024
 C 0.61374 0.824638 0.757709   0.000136
 C 0.62585 0.860746 0.835052   0.0762
 C 0.49942 0.848988 0.715988   0.052937
 C 0.42763 0.827034 0.577662   0.281611
 C 0.460072 0.793968 0.491338   -0.205515
 C 0.386962 0.819131 0.418795   -0.03547
 C 0.280086 0.874976 0.432486   -0.160849
 C 0.245012 0.905875 0.520847   0.07186
 C 0.320702 0.883388 0.592729   -0.284568
 C 0.13069 0.960039 0.540685   0.117059
 C 0.908732 0.017782 0.121648   0.310367
 C 0.679936 0.628566 0.163201   0.111149
 C 0.68546 0.513264 0.237586   -0.1507
 C 0.790124 0.489327 0.27754   -0.051823
 C 0.887538 0.581526 0.240661   -0.003216
 C 0.874902 0.694712 0.164572   0.076395
 C 0.00283 0.564221 0.282226   0.05151
 C 0.073332 0.405174 0.421968   0.283528
 C 0.040584 0.286778 0.508732   -0.206462
 C 0.113526 0.23994 0.58146   -0.036725
 C 0.22058 0.308985 0.567465   -0.160789
 C 0.255876 0.427246 0.478818   0.072647
 C 0.180492 0.476043 0.406592   -0.284138
 C 0.37031 0.500643 0.458832   0.117217
 C 0.591566 0.138431 0.878483   0.3113
 C 0.179078 0.206827 0.164379   0.113211
 C 0.18431 0.246856 0.239947   -0.151267
 C 0.289284 0.230697 0.279487   -0.055619
 C 0.38717 0.175867 0.241184   -0.000155
 C 0.374878 0.139609 0.163997   0.077221
 C 0.50166 0.151689 0.282676   0.051421
 C 0.573746 0.174349 0.42049   0.284161
 C 0.5408 0.207184 0.506979   -0.208124
 C 0.613216 0.181457 0.580156   -0.032928
 C 0.719868 0.125259 0.566934   -0.1624
 C 0.755444 0.094579 0.478413   0.071987
 C 0.680428 0.117615 0.405917   -0.284175
 C 0.869656 0.040196 0.458941   0.118116
 C 0.091108 0.982198 0.878365   0.313319
 C 0.319888 0.371418 0.836011   0.111002
 C 0.314136 0.486634 0.761575   -0.150585
 C 0.209132 0.510351 0.72208   -0.056569
 C 0.111646 0.418015 0.759398   0.000146
 C 0.124498 0.304937 0.835548   0.07565
 C 0.998278 0.436407 0.717511   0.051731
 C 0.928328 0.595257 0.577161   0.280858
 C 0.960808 0.713653 0.490408   -0.204351
 C 0.887494 0.760394 0.418016   -0.035925
 C 0.78033 0.691234 0.432324   -0.161265
 C 0.745274 0.572979 0.520981   0.072076
 C 0.821004 0.524292 0.592901   -0.28513
 C 0.630804 0.499478 0.541157   0.11867
 C 0.408724 0.861564 0.120941   0.311456
 S 0.750946 0.975396 0.165537   -0.332066
 S 0.749634 0.139891 0.837811   -0.334637
 S 0.24897 0.024473 0.834184   -0.333966
 S 0.250664 0.860128 0.161724   -0.334621
 N 0.727358 0.845893 0.872744   -0.298894
 N 0.051588 0.973514 0.483884   -0.221691
 N 0.022312 0.048521 0.092535   -0.504346
 N 0.773522 0.71813 0.126751   -0.297605
 N 0.448816 0.457758 0.516368   -0.221653
 N 0.478016 0.140398 0.904897   -0.504326
 N 0.273176 0.154231 0.126573   -0.29972
 N 0.948434 0.026521 0.516073   -0.222957
 N 0.977912 0.951367 0.907359   -0.504435
 N 0.226226 0.281732 0.872905   -0.297417
 N 0.552182 0.542318 0.483741   -0.222335
 N 0.52227 0.859586 0.094443   -0.504703
 O 0.50655 0.797944 0.643621   -0.25087
 O 0.994558 0.441519 0.355856   -0.250992
 O 0.495716 0.204167 0.35368   -0.252587
 O 0.007644 0.559035 0.642764   -0.249119
