#{'_ref': 'TBD', '_srcid': 'CAKYAQ_clean', 'submitters': [{'name': 'Dalar Nazarian Jeff Camp and David Sholl', 'email': 'dalar@gatech.edu jcamp6@gatech.edu'}], '_method': 'VASP DFT with PBE;DDEC'}
data_K3H20C22Cl3O5
_symmetry_space_group_name_H-M   'P 1'
_cell_length_a   7.31350022
_cell_length_b   19.28600037
_cell_length_c   21.74500000
_cell_angle_alpha   90.00499994
_cell_angle_beta   90.01399980
_cell_angle_gamma   91.65099980
_symmetry_Int_Tables_number   1
_chemical_formula_structural   K3H20C22Cl3O5
_chemical_formula_sum   'K12 H80 C88 Cl12 O20'
_cell_volume   3065.81905029
_cell_formula_units_Z   4
loop_
 _symmetry_equiv_pos_site_id
 _symmetry_equiv_pos_as_xyz
  1  'x, y, z'
loop_
 _atom_site_label
 _atom_site_fract_x
 _atom_site_fract_y
 _atom_site_fract_z
 _atom_site_charge
 K 0.41699 0.884992 0.665246   0.949304
 K 0.39925 0.608251 0.665465   0.948741
 K 0.532462 0.747361 0.769065   0.96845
 K 0.083012 0.114507 0.16546   0.949555
 K 0.10157 0.391493 0.164595   0.949031
 K 0.967658 0.25277 0.268344   0.968182
 K 0.583586 0.114992 0.33512   0.949504
 K 0.600972 0.391797 0.334882   0.948727
 K 0.467436 0.25259 0.231493   0.969301
 K 0.917682 0.885245 0.835453   0.95067
 K 0.899172 0.608473 0.835653   0.949087
 K 0.032478 0.747291 0.731758   0.968531
 H 0.65915 0.727008 0.616187   0.119937
 H 0.761372 0.722958 0.50705   0.109855
 H 0.212892 0.761616 0.446867   0.109529
 H 0.10842 0.764283 0.555549   0.116103
 H 0.957 0.635688 0.621807   0.115105
 H 0.067248 0.527048 0.577034   0.112181
 H 0.763236 0.409548 0.71527   0.11943
 H 0.64965 0.518677 0.758682   0.108107
 H 0.964402 0.855031 0.621739   0.106626
 H 0.089016 0.964141 0.572121   0.118231
 H 0.81002 0.085139 0.707945   0.119906
 H 0.6875 0.978026 0.757365   0.110022
 H 0.426014 0.061782 0.592413   0.071638
 H 0.650062 0.05011 0.561185   0.052585
 H 0.709704 0.940019 0.511953   0.04767
 H 0.526936 0.87611 0.509453   0.068143
 H 0.25056 0.524161 0.483655   0.048167
 H 0.348908 0.608365 0.500901   0.070856
 H 0.533704 0.442933 0.598568   0.075634
 H 0.359066 0.425944 0.542271   0.045578
 H 0.84119 0.272668 0.115355   0.120928
 H 0.738864 0.276601 0.0   0.106873
 H 0.286674 0.237122 0.946169   0.107374
 H 0.391372 0.234612 0.054853   0.117021
 H 0.54279 0.363902 0.120644   0.116558
 H 0.431408 0.47408 0.077415   0.112288
 H 0.737294 0.590051 0.214006   0.118596
 H 0.850544 0.480912 0.25749   0.108511
 H 0.53345 0.144381 0.12121   0.107131
 H 0.410836 0.036176 0.072753   0.112518
 H 0.689296 0.914755 0.208113   0.117928
 H 0.812912 0.022144 0.256812   0.109367
 H 0.067182 0.935868 0.091902   0.07173
 H 0.846 0.947336 0.058699   0.051391
 H 0.786884 0.058327 0.010916   0.047928
 H 0.967292 0.123205 0.011628   0.067219
 H 0.252314 0.475663 0.981908   0.049149
 H 0.155348 0.391587 0.000369999999997   0.070999
 H 0.973116 0.557611 0.09767   0.076076
 H 0.14516 0.574578 0.040413   0.045981
 H 0.34111 0.272795 0.384169   0.12024
 H 0.239436 0.276771 0.493363   0.110446
 H 0.78827 0.238192 0.553213   0.109003
 H 0.892262 0.235722 0.444465   0.116141
 H 0.044092 0.363406 0.378615   0.115813
 H 0.931388 0.474626 0.421442   0.110986
 H 0.23575 0.590676 0.286885   0.118324
 H 0.349096 0.482107 0.242256   0.107864
 H 0.03347 0.144226 0.379795   0.107453
 H 0.9115 0.035821 0.427946   0.11291
 H 0.190316 0.914977 0.292322   0.117578
 H 0.31336 0.022577 0.243898   0.109537
 H 0.573964 0.937805 0.407641   0.071418
 H 0.349944 0.949498 0.438886   0.052579
 H 0.290358 0.0596 0.488086   0.047904
 H 0.473168 0.123482 0.490614   0.068448
 H 0.756094 0.475231 0.517795   0.049497
 H 0.657414 0.39112 0.500394   0.071005
 H 0.472366 0.556473 0.402747   0.074576
 H 0.647166 0.573778 0.458899   0.04528
 H 0.158784 0.727148 0.884614   0.121481
 H 0.261148 0.723228 0.993766   0.109254
 H 0.713176 0.762827 0.054194   0.107702
 H 0.60867 0.765229 0.94549   0.116791
 H 0.456724 0.635882 0.879479   0.115665
 H 0.568148 0.525704 0.922675   0.112436
 H 0.262426 0.40976 0.78603   0.119141
 H 0.149168 0.518917 0.742547   0.108097
 H 0.465762 0.855559 0.879045   0.106618
 H 0.588198 0.963711 0.927628   0.112294
 H 0.3107 0.085264 0.792134   0.117814
 H 0.18723 0.977919 0.743312   0.109824
 H 0.932634 0.063909 0.9082   0.072308
 H 0.154076 0.052746 0.941599   0.052647
 H 0.21305 0.94164 0.989218   0.047282
 H 0.032576 0.876791 0.988392   0.066166
 H 0.747744 0.524194 0.018165   0.049642
 H 0.844646 0.608297 0.999769   0.070658
 H 0.026944 0.442171 0.902422   0.075582
 H 0.854986 0.425345 0.959557   0.045572
 C 0.374764 0.745601 0.595231   0.359992
 C 0.560812 0.734262 0.579065   -0.319462
 C 0.618584 0.732137 0.518006   -0.095387
 C 0.49322 0.741949 0.470537   0.090198
 C 0.30972 0.75369 0.484141   -0.118599
 C 0.25188 0.755267 0.545168   -0.26078
 C 0.799256 0.587389 0.695738   0.381261
 C 0.916898 0.586355 0.643293   -0.276423
 C 0.97833 0.524635 0.61851   -0.153304
 C 0.925214 0.460968 0.644908   0.097848
 C 0.80688 0.459152 0.695262   -0.075351
 C 0.744562 0.521006 0.719864   -0.365362
 C 0.820848 0.906618 0.695345   0.381199
 C 0.933356 0.905329 0.641643   -0.28114
 C 0.002426 0.966638 0.61287   -0.146686
 C 0.957386 0.030554 0.637886   0.091283
 C 0.845428 0.034629 0.689659   -0.072971
 C 0.778158 0.973999 0.717628   -0.357833
 C 0.502634 0.038815 0.55447   0.058101
 C 0.560468 0.931879 0.506645   0.050901
 C 0.37744 0.552981 0.496725   0.051672
 C 0.483276 0.457531 0.552959   0.060385
 C 0.12535 0.253814 0.094512   0.362698
 C 0.939416 0.265258 0.078242   -0.315621
 C 0.881578 0.267309 0.017176   -0.098549
 C 0.006634 0.257262 0.969833   0.08942
 C 0.190022 0.245277 0.983437   -0.115902
 C 0.24798 0.243785 0.044464   -0.262483
 C 0.700708 0.412195 0.194567   0.383934
 C 0.58305 0.413242 0.142104   -0.280461
 C 0.521808 0.474972 0.117281   -0.148426
 C 0.575156 0.538641 0.143645   0.093991
 C 0.693486 0.540447 0.194019   -0.073911
 C 0.755588 0.478582 0.218669   -0.369258
 C 0.678452 0.093203 0.194731   0.382336
 C 0.56477 0.094196 0.141282   -0.275835
 C 0.497256 0.033536 0.11355   -0.142676
 C 0.540578 0.968946 0.138128   0.085774
 C 0.653598 0.965162 0.189674   -0.069303
 C 0.721472 0.025952 0.217237   -0.364004
 C 0.993608 0.959612 0.053816   0.059877
 C 0.936288 0.067356 0.007414   0.050553
 C 0.126266 0.446892 0.995862   0.050648
 C 0.021898 0.542815 0.051867   0.059926
 C 0.625674 0.254371 0.404951   0.36095
 C 0.43968 0.265618 0.421231   -0.320114
 C 0.3822 0.267658 0.482322   -0.095314
 C 0.507802 0.257818 0.529715   0.090709
 C 0.691256 0.246133 0.515997   -0.11671
 C 0.74882 0.244666 0.454933   -0.262082
 C 0.200698 0.412611 0.304854   0.381384
 C 0.083754 0.412988 0.3575   -0.281399
 C 0.022468 0.474386 0.382962   -0.143428
 C 0.075044 0.538373 0.357067   0.093177
 C 0.192594 0.54082 0.30651   -0.075835
 C 0.254782 0.479289 0.281226   -0.364994
 C 0.178708 0.093374 0.306175   0.385757
 C 0.06506 0.094117 0.359622   -0.277386
 C 0.997932 0.033353 0.387157   -0.140625
 C 0.041484 0.968848 0.362466   0.083924
 C 0.154398 0.965299 0.310893   -0.067561
 C 0.221954 0.026218 0.283483   -0.368239
 C 0.497386 0.960776 0.445592   0.057801
 C 0.439594 0.067712 0.493412   0.04996
 C 0.629146 0.446514 0.504653   0.050586
 C 0.523168 0.542005 0.448351   0.061268
 C 0.87474 0.745969 0.905891   0.362202
 C 0.060608 0.734619 0.92173   -0.32073
 C 0.11846 0.732572 0.982793   -0.096775
 C 0.993252 0.742645 0.03061   0.08796
 C 0.809892 0.754624 0.016954   -0.113289
 C 0.752038 0.756051 0.955915   -0.265569
 C 0.298974 0.587611 0.805502   0.382493
 C 0.41649 0.58655 0.858001   -0.279854
 C 0.477758 0.524819 0.882806   -0.147915
 C 0.424454 0.461157 0.856418   0.094478
 C 0.306162 0.459362 0.806034   -0.074383
 C 0.244056 0.521231 0.781391   -0.368703
 C 0.321296 0.906804 0.80544   0.382055
 C 0.434576 0.90576 0.858981   -0.275022
 C 0.502018 0.966388 0.886776   -0.142263
 C 0.458956 0.031003 0.862187   0.085998
 C 0.34622 0.034839 0.810577   -0.069048
 C 0.27843 0.974074 0.782947   -0.364397
 C 0.00646 0.040473 0.946452   0.059442
 C 0.063632 0.932629 0.992685   0.05036
 C 0.873768 0.552991 0.00423   0.051233
 C 0.97821 0.45714 0.948127   0.061592
 Cl 0.566322 0.739827 0.393924   -0.138432
 Cl 0.005196 0.384693 0.6114   -0.131773
 Cl 0.042478 0.107825 0.60295   -0.136741
 Cl 0.93363 0.259325 0.893101   -0.139562
 Cl 0.494972 0.616004 0.112841   -0.13162
 Cl 0.456188 0.892412 0.103362   -0.12991
 Cl 0.435056 0.259843 0.606367   -0.139404
 Cl 0.994172 0.61657 0.385957   -0.132264
 Cl 0.957726 0.892164 0.396976   -0.129503
 Cl 0.066484 0.740629 0.106867   -0.135947
 Cl 0.50474 0.383793 0.887182   -0.132088
 Cl 0.543342 0.107499 0.897023   -0.130414
 O 0.321104 0.746944 0.653185   -0.884377
 O 0.742474 0.645373 0.720089   -0.860677
 O 0.757904 0.849754 0.722359   -0.862538
 O 0.468692 0.964644 0.557324   -0.397411
 O 0.43706 0.529803 0.556414   -0.399184
 O 0.179196 0.252645 0.152453   -0.884967
 O 0.757452 0.354202 0.218903   -0.860934
 O 0.742268 0.150226 0.221288   -0.863135
 O 0.024178 0.033667 0.058397   -0.396372
 O 0.069484 0.470706 0.055675   -0.398752
 O 0.679042 0.253147 0.346956   -0.885515
 O 0.25763 0.354935 0.279962   -0.861531
 O 0.242064 0.150521 0.27974   -0.864254
 O 0.53138 0.034939 0.442735   -0.396066
 O 0.569958 0.469789 0.444956   -0.398463
 O 0.820988 0.747105 0.847942   -0.885284
 O 0.2423 0.645611 0.781162   -0.860748
 O 0.257696 0.849804 0.77878   -0.863151
 O 0.975834 0.966199 0.941872   -0.397767
 O 0.930552 0.529246 0.944392   -0.399105
