#{'_ref': 'TBD', '_srcid': 'CAKYAQ_clean', 'submitters': [{'name': 'Dalar Nazarian Jeff Camp and David Sholl', 'email': 'dalar@gatech.edu jcamp6@gatech.edu'}], '_method': 'VASP DFT with PBE;DDEC'}
data_ZnH18C26(NO2)2
_symmetry_space_group_name_H-M   'P 1'
_cell_length_a   6.25399961
_cell_length_b   15.84500035
_cell_length_c   16.64400000
_cell_angle_alpha   104.35699890
_cell_angle_beta   90.12800405
_cell_angle_gamma   101.25599991
_symmetry_Int_Tables_number   1
_chemical_formula_structural   ZnH18C26(NO2)2
_chemical_formula_sum   'Zn2 H36 C52 N4 O8'
_cell_volume   1564.86034751
_cell_formula_units_Z   2
loop_
 _symmetry_equiv_pos_site_id
 _symmetry_equiv_pos_as_xyz
  1  'x, y, z'
loop_
 _atom_site_label
 _atom_site_fract_x
 _atom_site_fract_y
 _atom_site_fract_z
 _atom_site_charge
 Zn 0.38924 0.999859 0.249665   0.832035
 Zn 0.61072 0.000146000000001 0.750317   0.832066
 H 0.980904 0.187006 0.37607   0.098035
 H 0.855022 0.322185 0.44869   0.104487
 H 0.472556 0.481817 0.411689   0.110556
 H 0.597196 0.343721 0.339233   0.112378
 H 0.215334 0.555717 0.481092   0.09906
 H 0.827298 0.107747 0.230116   0.11091
 H 0.11173 0.108119 0.128634   0.134086
 H 0.669672 0.891515 0.959213   0.137751
 H 0.408592 0.898319 0.070045   0.099349
 H 0.792952 0.812928 0.123697   0.097207
 H 0.531878 0.677867 0.051505   0.104636
 H 0.99155 0.517977 0.088292   0.110511
 H 0.254632 0.655994 0.160129   0.111542
 H 0.659828 0.444167 0.019193   0.099134
 H 0.720204 0.891689 0.269562   0.111827
 H 0.004574 0.891626 0.371605   0.133929
 H 0.77679 0.108266 0.540212   0.137636
 H 0.508408 0.101029 0.428891   0.09872
 H 0.019058 0.812982 0.623915   0.097809
 H 0.144928 0.677803 0.551291   0.104537
 H 0.527408 0.518172 0.588301   0.11073
 H 0.402764 0.656269 0.660752   0.112339
 H 0.784628 0.44427 0.518899   0.098989
 H 0.17265 0.892246 0.769859   0.110913
 H 0.888226 0.891869 0.871344   0.134139
 H 0.330288 0.108472 0.040765   0.137669
 H 0.591358 0.101674 0.92993   0.099296
 H 0.207014 0.18706 0.876273   0.097198
 H 0.468094 0.32212 0.948465   0.104592
 H 0.008422 0.482013 0.911686   0.11048
 H 0.745342 0.343996 0.839847   0.111479
 H 0.34015 0.555822 0.980779   0.099178
 H 0.279816 0.108324 0.730405   0.11177
 H 0.995436 0.108392 0.628361   0.133727
 H 0.223088 0.891695 0.459778   0.137599
 H 0.49149 0.898941 0.571094   0.098701
 C 0.38062 0.174836 0.311971   0.607541
 C 0.298684 0.256476 0.354008   -0.112732
 C 0.089102 0.251678 0.385031   -0.054286
 C 0.019304 0.328261 0.426126   -0.14272
 C 0.156174 0.412953 0.437358   0.106098
 C 0.36487 0.417004 0.404434   -0.162168
 C 0.435438 0.340325 0.363947   -0.063948
 C 0.093768 0.495712 0.480569   -0.127764
 C 0.80094 0.06052 0.16953   0.166553
 C 0.958392 0.060505 0.110895   -0.181843
 C 0.918354 0.000390000000003 0.032283   0.112848
 C 0.715178 0.94084 0.01806   -0.201991
 C 0.566182 0.944115 0.079797   0.138827
 C 0.206362 0.825046 0.186927   0.611629
 C 0.042496 0.743395 0.145436   -0.118933
 C 0.83696 0.748242 0.114752   -0.049759
 C 0.690516 0.671689 0.073864   -0.142662
 C 0.74317 0.586949 0.062656   0.104767
 C 0.948352 0.58283 0.095451   -0.162681
 C 0.095776 0.659487 0.135637   -0.060975
 C 0.598106 0.504231 0.019504   -0.127633
 C 0.740644 0.938951 0.330135   0.164887
 C 0.898302 0.939186 0.389053   -0.179837
 C 0.917802 0.999468 0.46757   0.111594
 C 0.773424 0.058893 0.481455   -0.202091
 C 0.620996 0.055397 0.419471   0.139543
 C 0.619336 0.825154 0.688004   0.607477
 C 0.70128 0.743512 0.645981   -0.112961
 C 0.910856 0.74831 0.614953   -0.054011
 C 0.98066 0.671727 0.573863   -0.142841
 C 0.84379 0.587035 0.562631   0.106379
 C 0.635092 0.582984 0.595554   -0.16253
 C 0.56452 0.659665 0.636036   -0.063779
 C 0.9062 0.504275 0.519425   -0.127716
 C 0.199026 0.939465 0.83045   0.166713
 C 0.041558 0.939488 0.88908   -0.181962
 C 0.081598 0.999618 0.967696   0.112804
 C 0.284772 0.059152 0.981915   -0.20188
 C 0.433784 0.055869 0.920185   0.139172
 C 0.793604 0.174943 0.813057   0.611853
 C 0.95748 0.256595 0.854537   -0.119377
 C 0.163022 0.251748 0.88521   -0.049638
 C 0.309452 0.328299 0.926111   -0.142516
 C 0.256814 0.413041 0.937307   0.104504
 C 0.051614 0.41716 0.904528   -0.162608
 C 0.904196 0.340503 0.864341   -0.06075
 C 0.401864 0.495757 0.980472   -0.127581
 C 0.259328 0.061048 0.669838   0.164589
 C 0.101686 0.060821 0.610919   -0.179188
 C 0.082132 0.000540999999998 0.532412   0.111125
 C 0.226496 0.941083 0.518529   -0.202011
 C 0.378918 0.944578 0.580517   0.13966
 N 0.605926 0.003537 0.154573   -0.31857
 N 0.602086 0.995903 0.344769   -0.317574
 N 0.39402 0.996461 0.845401   -0.318945
 N 0.397884 0.004092 0.655208   -0.317493
 O 0.240418 0.099104 0.298831   -0.604929
 O 0.574964 0.180764 0.292353   -0.583874
 O 0.140406 0.900684 0.201245   -0.605391
 O 0.396474 0.819232 0.204866   -0.585617
 O 0.759548 0.900884 0.70115   -0.604844
 O 0.425 0.819223 0.707633   -0.58392
 O 0.859564 0.099305 0.798734   -0.60544
 O 0.603492 0.180756 0.795115   -0.585597
