#{'_ref': 'TBD', '_srcid': 'CAKYAQ_clean', 'submitters': [{'name': 'Dalar Nazarian Jeff Camp and David Sholl', 'email': 'dalar@gatech.edu jcamp6@gatech.edu'}], '_method': 'VASP DFT with PBE;DDEC'}
data_ZnH12C20NO5
_symmetry_space_group_name_H-M   'P 1'
_cell_length_a   14.33100001
_cell_length_b   14.33399999
_cell_length_c   26.52800000
_cell_angle_alpha   80.06500007
_cell_angle_beta   80.12900025
_cell_angle_gamma   86.37399953
_symmetry_Int_Tables_number   1
_chemical_formula_structural   ZnH12C20NO5
_chemical_formula_sum   'Zn8 H96 C160 N8 O40'
_cell_volume   5285.03270416
_cell_formula_units_Z   8
loop_
 _symmetry_equiv_pos_site_id
 _symmetry_equiv_pos_as_xyz
  1  'x, y, z'
loop_
 _atom_site_label
 _atom_site_fract_x
 _atom_site_fract_y
 _atom_site_fract_z
 _atom_site_charge
 Zn 0.118998 0.823625 0.910437   0.92612
 Zn 0.14478 0.592907 0.931654   0.901758
 Zn 0.827126 0.118963 0.410614   0.923635
 Zn 0.596355 0.144966 0.431306   0.901554
 Zn 0.172855 0.880602 0.589392   0.920258
 Zn 0.403622 0.854572 0.568702   0.902111
 Zn 0.880999 0.176266 0.089529   0.924772
 Zn 0.855235 0.407004 0.068285   0.90168
 H 0.370629 0.841507 0.794906   0.12014
 H 0.537952 0.853879 0.749411   0.113134
 H 0.619489 0.613432 0.856572   0.110363
 H 0.450991 0.597247 0.899171   0.118649
 H 0.860392 0.705796 0.909521   0.110842
 H 0.712438 0.748461 0.872461   0.10967
 H 0.850388 0.668856 0.727814   0.111888
 H 0.0 0.62193 0.766437   0.115779
 H 0.844343 0.119543 0.572234   0.103313
 H 0.839828 0.083195 0.667119   0.09655
 H 0.55065 0.0 0.6865   0.101838
 H 0.554299 0.040584 0.591487   0.107584
 H 0.808441 0.0 0.893822   0.107022
 H 0.684516 0.034996 0.83812   0.107361
 H 0.861098 0.933292 0.709324   0.092871
 H 0.984668 0.879627 0.764277   0.123381
 H 0.182614 0.00335 0.839166   0.103689
 H 0.192298 0.173829 0.843111   0.121819
 H 0.118464 0.101269 0.010701   0.14682
 H 0.107945 0.935513 0.998321   0.083727
 H 0.226425 0.469173 0.860247   0.113774
 H 0.235421 0.29998 0.853249   0.143658
 H 0.088971 0.244328 0.012369   0.146011
 H 0.088806 0.415735 0.012984   0.10009
 H 0.845229 0.371552 0.295199   0.119732
 H 0.856354 0.538862 0.249398   0.11194
 H 0.615671 0.619267 0.356558   0.110118
 H 0.600596 0.450747 0.399362   0.119045
 H 0.707045 0.860574 0.409212   0.110278
 H 0.75047 0.712889 0.372095   0.109906
 H 0.668703 0.850224 0.227743   0.111515
 H 0.621212 0.0 0.266386   0.115732
 H 0.119818 0.843259 0.071322   0.103516
 H 0.083712 0.840402 0.166046   0.096139
 H 0.0 0.550724 0.187152   0.102656
 H 0.041124 0.5529 0.092251   0.106396
 H 0.0 0.809685 0.393406   0.107043
 H 0.0367 0.686075 0.337734   0.108654
 H 0.934163 0.862047 0.208826   0.093146
 H 0.879842 0.985425 0.263724   0.123135
 H 0.006302 0.180944 0.339206   0.104119
 H 0.176842 0.191176 0.343053   0.123196
 H 0.104652 0.118861 0.51077   0.148004
 H 0.938806 0.107907 0.498503   0.084766
 H 0.471913 0.22745 0.360097   0.113712
 H 0.302614 0.235795 0.353139   0.141481
 H 0.247933 0.088749 0.512237   0.145193
 H 0.419365 0.089414 0.512818   0.101033
 H 0.155139 0.627875 0.704891   0.118803
 H 0.144096 0.460613 0.750751   0.112318
 H 0.384699 0.380097 0.643588   0.110606
 H 0.399789 0.548618 0.600741   0.119414
 H 0.292908 0.13916 0.590816   0.110119
 H 0.249539 0.286775 0.628045   0.110015
 H 0.331381 0.149111 0.772322   0.111984
 H 0.378833 0.002723 0.733553   0.116641
 H 0.880291 0.156373 0.928539   0.101031
 H 0.916873 0.15922 0.833837   0.09883
 H 0.000813999999998 0.448901 0.812872   0.103022
 H 0.958681 0.446807 0.90774   0.106804
 H 0.021263 0.189429 0.606663   0.110614
 H 0.964123 0.313265 0.662259   0.116898
 H 0.06633 0.137029 0.791192   0.092421
 H 0.120199 0.013537 0.736319   0.119383
 H 0.0 0.81856 0.660821   0.105219
 H 0.82308 0.80865 0.656977   0.123094
 H 0.895348 0.880627 0.489258   0.148693
 H 0.061217 0.891411 0.501522   0.08344
 H 0.528056 0.77226 0.63992   0.113556
 H 0.697351 0.764047 0.646892   0.141542
 H 0.752051 0.910883 0.487755   0.146285
 H 0.580598 0.910128 0.487171   0.100964
 H 0.629376 0.158433 0.205041   0.119441
 H 0.462065 0.146054 0.250545   0.113429
 H 0.380502 0.386541 0.143416   0.110505
 H 0.548992 0.402734 0.100807   0.11868
 H 0.139631 0.294145 0.090442   0.110382
 H 0.287575 0.251474 0.12751   0.109526
 H 0.14961 0.331095 0.272152   0.112273
 H 0.002822 0.377967 0.23353   0.11618
 H 0.155651 0.880266 0.427789   0.100722
 H 0.160093 0.9167 0.33291   0.099415
 H 0.449263 0.001493 0.313493   0.102833
 H 0.445692 0.95924 0.408502   0.107862
 H 0.191464 0.021975 0.106206   0.1113
 H 0.31536 0.96491 0.161929   0.116216
 H 0.138742 0.066609 0.290711   0.091554
 H 0.015188 0.12029 0.235737   0.119458
 H 0.817538 0.0 0.160866   0.104396
 H 0.807822 0.825988 0.156909   0.121742
 H 0.881297 0.898638 0.989305   0.147109
 H 0.891827 0.064385 0.001696   0.083222
 H 0.773567 0.530659 0.139698   0.11384
 H 0.764558 0.699841 0.146744   0.143563
 H 0.910989 0.75563 0.987625   0.146758
 H 0.911191 0.584245 0.986961   0.099927
 C 0.300378 0.711315 0.877392   0.68055
 C 0.401066 0.719535 0.850346   -0.067629
 C 0.425686 0.792114 0.808121   -0.071414
 C 0.518897 0.799188 0.782922   -0.059465
 C 0.590129 0.736337 0.80074   -0.060435
 C 0.56529 0.663908 0.843202   -0.102064
 C 0.471202 0.654546 0.86712   -0.087425
 C 0.027382 0.633964 0.862072   0.624064
 C 0.937805 0.661166 0.840292   -0.058211
 C 0.85707 0.695904 0.870151   -0.073716
 C 0.774173 0.719556 0.849301   -0.094691
 C 0.771544 0.710806 0.797683   -0.0625
 C 0.852816 0.676046 0.767781   -0.080912
 C 0.934496 0.650359 0.789028   -0.077899
 C 0.688609 0.745088 0.771728   0.415013
 C 0.698839 0.104894 0.518357   0.668767
 C 0.699687 0.08191 0.57558   -0.096089
 C 0.780161 0.092488 0.597312   -0.070616
 C 0.777774 0.070722 0.650865   -0.101502
 C 0.695112 0.035924 0.683532   -0.036618
 C 0.614898 0.024961 0.661379   -0.064579
 C 0.616799 0.048435 0.608349   -0.072996
 C 0.974146 0.886722 0.867085   0.600417
 C 0.903992 0.925562 0.83234   -0.03943
 C 0.819585 0.97034 0.853044   -0.114619
 C 0.751135 0.001895 0.822308   -0.052848
 C 0.764995 0.0 0.770009   -0.077768
 C 0.8501 0.945861 0.749237   -0.075696
 C 0.91919 0.914634 0.780052   -0.092744
 C 0.683127 0.015924 0.741564   0.412397
 C 0.16981 0.028619 0.876304   0.12946
 C 0.175908 0.12382 0.879086   -0.19385
 C 0.158193 0.153909 0.927729   0.117382
 C 0.134183 0.084385 0.971579   -0.196915
 C 0.12839 0.990902 0.965338   0.147681
 C 0.198827 0.416419 0.893233   0.142387
 C 0.203101 0.320882 0.88991   -0.186489
 C 0.162113 0.255158 0.932173   0.117605
 C 0.122338 0.290329 0.97776   -0.199022
 C 0.121293 0.387073 0.978422   0.142643
 C 0.715246 0.300703 0.377591   0.680798
 C 0.723127 0.401439 0.35057   -0.066267
 C 0.795524 0.426393 0.308332   -0.074242
 C 0.801913 0.519583 0.282981   -0.05632
 C 0.738581 0.590469 0.300707   -0.061975
 C 0.666453 0.565315 0.343249   -0.10069
 C 0.657739 0.47123 0.367289   -0.08823
 C 0.634164 0.027103 0.361933   0.625179
 C 0.661366 0.937646 0.340127   -0.060137
 C 0.696826 0.857132 0.369907   -0.070959
 C 0.720908 0.774409 0.349028   -0.097622
 C 0.711763 0.771707 0.297473   -0.060717
 C 0.676221 0.852729 0.267656   -0.080695
 C 0.650176 0.934266 0.288926   -0.077804
 C 0.746314 0.688933 0.271533   0.415219
 C 0.105112 0.696603 0.018372   0.668846
 C 0.082308 0.698304 0.075508   -0.0969
 C 0.092848 0.779354 0.096721   -0.068566
 C 0.071254 0.777914 0.15019   -0.103271
 C 0.036839 0.695557 0.183312   -0.031692
 C 0.025843 0.614775 0.161685   -0.070631
 C 0.048988 0.615806 0.108722   -0.070177
 C 0.887044 0.974823 0.366645   0.604225
 C 0.925926 0.904888 0.33187   -0.044866
 C 0.971136 0.820737 0.352621   -0.110666
 C 0.003226 0.752505 0.321906   -0.05706
 C 0.0 0.766253 0.269593   -0.073933
 C 0.94669 0.851106 0.248762   -0.078186
 C 0.915052 0.920067 0.279555   -0.088368
 C 0.017924 0.684349 0.241318   0.41072
 C 0.031735 0.168588 0.37633   0.126585
 C 0.126921 0.175008 0.379059   -0.191791
 C 0.15707 0.157919 0.42771   0.117452
 C 0.087682 0.134179 0.471627   -0.198279
 C 0.994148 0.128049 0.465461   0.148947
 C 0.419321 0.199656 0.393101   0.144713
 C 0.323759 0.203548 0.389793   -0.186681
 C 0.258306 0.162248 0.43209   0.117457
 C 0.293714 0.122501 0.477645   -0.198416
 C 0.390471 0.121844 0.478269   0.141689
 C 0.284863 0.698621 0.622394   0.683189
 C 0.277213 0.597932 0.649503   -0.067847
 C 0.204871 0.573041 0.691777   -0.07272
 C 0.198524 0.479891 0.717168   -0.05732
 C 0.261803 0.408992 0.699423   -0.059994
 C 0.333941 0.434082 0.656882   -0.102564
 C 0.342653 0.528154 0.63282   -0.088537
 C 0.36586 0.972584 0.638024   0.623754
 C 0.338618 0.061981 0.659864   -0.059088
 C 0.303124 0.142525 0.630133   -0.073181
 C 0.279088 0.225193 0.651069   -0.097816
 C 0.288287 0.227778 0.70263   -0.058191
 C 0.323823 0.146704 0.732404   -0.085277
 C 0.349844 0.065235 0.711071   -0.073697
 C 0.253875 0.31057 0.728577   0.414524
 C 0.894858 0.302916 0.981588   0.669595
 C 0.917691 0.301329 0.924434   -0.096638
 C 0.907306 0.220294 0.903173   -0.068454
 C 0.929188 0.221731 0.84971   -0.105367
 C 0.963844 0.304048 0.816633   -0.031517
 C 0.974531 0.384864 0.838307   -0.069703
 C 0.951013 0.383866 0.891255   -0.069301
 C 0.112863 0.02366 0.633672   0.610624
 C 0.074155 0.094074 0.668191   -0.0727
 C 0.029106 0.17833 0.647426   -0.086238
 C 0.99739 0.246731 0.678118   -0.088091
 C 0.010038 0.233015 0.730416   -0.050691
 C 0.053745 0.148009 0.751267   -0.086185
 C 0.085109 0.07897 0.720496   -0.075453
 C 0.983743 0.315155 0.75863   0.403179
 C 0.968233 0.830929 0.623698   0.118027
 C 0.873022 0.824693 0.620971   -0.185277
 C 0.84289 0.841768 0.572317   0.117551
 C 0.912305 0.865363 0.5284   -0.197507
 C 0.005858 0.871349 0.534568   0.145347
 C 0.580647 0.800056 0.606916   0.145219
 C 0.6762 0.796229 0.610231   -0.187005
 C 0.741655 0.837497 0.567928   0.117535
 C 0.706257 0.877185 0.522359   -0.198157
 C 0.609505 0.877781 0.52173   0.141616
 C 0.69961 0.288652 0.122549   0.680223
 C 0.598931 0.280427 0.149612   -0.067418
 C 0.57432 0.207837 0.191833   -0.071297
 C 0.481112 0.20076 0.21704   -0.059672
 C 0.409873 0.263618 0.199235   -0.060121
 C 0.434704 0.336059 0.156778   -0.101919
 C 0.528789 0.345425 0.132854   -0.087361
 C 0.972623 0.365977 0.137898   0.624379
 C 0.0622 0.338752 0.159675   -0.0609
 C 0.142941 0.304022 0.129817   -0.072816
 C 0.225833 0.280368 0.150672   -0.095258
 C 0.228457 0.289117 0.202291   -0.060517
 C 0.147182 0.323875 0.23219   -0.08533
 C 0.065504 0.349546 0.210941   -0.071914
 C 0.311394 0.254861 0.22825   0.413823
 C 0.301177 0.894897 0.481633   0.668857
 C 0.300313 0.917911 0.424416   -0.09664
 C 0.219812 0.907353 0.402703   -0.068826
 C 0.222157 0.929172 0.349156   -0.105989
 C 0.304799 0.964005 0.316485   -0.033423
 C 0.385035 0.97496 0.338621   -0.06642
 C 0.383178 0.951424 0.391644   -0.071931
 C 0.025791 0.113236 0.132923   0.605451
 C 0.095904 0.074369 0.167682   -0.068659
 C 0.180308 0.029581 0.146985   -0.089211
 C 0.248737 0.998017 0.177729   -0.085822
 C 0.234859 0.010531 0.230026   -0.052947
 C 0.149752 0.054054 0.250796   -0.082657
 C 0.080676 0.085286 0.219972   -0.080094
 C 0.31674 0.984022 0.258459   0.405845
 C 0.830253 0.971216 0.123724   0.12404
 C 0.824142 0.876017 0.120936   -0.189085
 C 0.841754 0.845958 0.072285   0.116653
 C 0.865658 0.9155 0.028434   -0.195998
 C 0.871464 0.008975 0.03468   0.146473
 C 0.801158 0.583439 0.106724   0.141813
 C 0.796877 0.678965 0.110075   -0.185885
 C 0.837847 0.74472 0.067824   0.11763
 C 0.877624 0.709598 0.022223   -0.197437
 C 0.878686 0.612864 0.021534   0.14169
 N 0.146132 0.962364 0.918665   -0.304917
 N 0.157506 0.449903 0.936603   -0.321662
 N 0.965579 0.145183 0.418762   -0.304114
 N 0.453054 0.158403 0.436447   -0.3216
 N 0.03442 0.854173 0.581265   -0.300556
 N 0.546922 0.841233 0.563555   -0.322497
 N 0.853838 0.037486 0.08136   -0.30435
 N 0.842479 0.549999 0.063338   -0.321175
 O 0.247567 0.785968 0.874021   -0.579035
 O 0.275989 0.629486 0.902003   -0.58975
 O 0.028582 0.654128 0.908451   -0.633892
 O 0.094625 0.592373 0.837618   -0.554462
 O 0.70259 0.781625 0.725245   -0.436643
 O 0.778165 0.106882 0.487796   -0.589442
 O 0.617343 0.119456 0.504818   -0.573351
 O 0.951206 0.880327 0.915735   -0.589819
 O 0.057212 0.860163 0.845944   -0.565448
 O 0.602432 0.020692 0.766762   -0.432945
 O 0.790109 0.248201 0.374538   -0.578589
 O 0.633311 0.275977 0.401847   -0.589659
 O 0.654482 0.027985 0.408295   -0.63328
 O 0.592697 0.094524 0.337461   -0.555642
 O 0.782106 0.702976 0.224955   -0.437228
 O 0.107093 0.775746 0.98761   -0.587581
 O 0.119485 0.614889 0.005131   -0.573858
 O 0.880713 0.951687 0.415319   -0.591527
 O 0.860664 0.057999 0.345642   -0.566178
 O 0.024387 0.604025 0.266736   -0.433016
 O 0.209727 0.750703 0.625147   -0.578849
 O 0.366863 0.723669 0.598368   -0.590269
 O 0.345519 0.971681 0.591672   -0.633812
 O 0.407393 0.905225 0.662497   -0.554651
 O 0.217976 0.296614 0.775139   -0.437512
 O 0.892937 0.223721 0.01231   -0.587117
 O 0.880463 0.384581 0.994877   -0.574108
 O 0.119172 0.045964 0.584929   -0.590256
 O 0.139263 0.940682 0.654889   -0.566138
 O 0.979111 0.395604 0.73311   -0.431148
 O 0.752398 0.213981 0.125859   -0.578644
 O 0.724015 0.370504 0.097982   -0.589488
 O 0.971421 0.345832 0.091515   -0.634157
 O 0.905391 0.407568 0.162359   -0.554411
 O 0.297415 0.218348 0.274738   -0.436497
 O 0.221858 0.892948 0.512183   -0.58831
 O 0.382677 0.880321 0.495175   -0.573242
 O 0.048765 0.119632 0.084275   -0.588901
 O 0.942722 0.139815 0.154048   -0.565481
 O 0.397419 0.979287 0.233241   -0.43303
