#{'_ref': 'TBD', '_srcid': 'CAKYAQ_clean', 'submitters': [{'name': 'Dalar Nazarian Jeff Camp and David Sholl', 'email': 'dalar@gatech.edu jcamp6@gatech.edu'}], '_method': 'VASP DFT with PBE;DDEC'}
data_CdH11C17N3O4
_symmetry_space_group_name_H-M   'P 1'
_cell_length_a   14.61400002
_cell_length_b   18.28499977
_cell_length_c   18.36100000
_cell_angle_alpha   112.51799911
_cell_angle_beta   105.62599923
_cell_angle_gamma   105.42900036
_symmetry_Int_Tables_number   1
_chemical_formula_structural   CdH11C17N3O4
_chemical_formula_sum   'Cd6 H66 C102 N18 O24'
_cell_volume   3971.16185976
_cell_formula_units_Z   6
loop_
 _symmetry_equiv_pos_site_id
 _symmetry_equiv_pos_as_xyz
  1  'x, y, z'
loop_
 _atom_site_label
 _atom_site_fract_x
 _atom_site_fract_y
 _atom_site_fract_z
 _atom_site_charge
 Cd 0.092318 0.63249 0.234967   0.915127
 Cd 0.853905 0.761579 0.39133   0.916679
 Cd 0.460528 0.60617 0.366596   0.915289
 Cd 0.90765 0.367555 0.765007   0.915152
 Cd 0.146066 0.238468 0.608646   0.91649
 Cd 0.539447 0.393876 0.633377   0.915188
 H 0.191266 0.957502 0.474306   0.141956
 H 0.439191 0.940564 0.391394   0.134827
 H 0.332908 0.780568 0.301269   0.096237
 H 0.446778 0.075096 0.403412   0.140814
 H 0.334671 0.074928 0.600414   0.150932
 H 0.420897 0.234769 0.675796   0.100225
 H 0.936123 0.718787 0.179113   0.089075
 H 0.843387 0.735894 0.054397   0.131171
 H 0.870806 0.673669 0.91793   0.098794
 H 0.992687 0.596935 0.91372   0.137054
 H 0.081049 0.58978 0.045014   0.098931
 H 0.715831 0.523621 0.483522   0.143033
 H 0.046862 0.607485 0.547401   0.135038
 H 0.029104 0.696198 0.47432   0.096792
 H 0.043274 0.59757 0.671293   0.141342
 H 0.734369 0.397757 0.478174   0.151129
 H 0.746614 0.323635 0.565061   0.097641
 H 0.754275 0.816716 0.532431   0.088424
 H 0.788987 0.93972 0.674064   0.130597
 H 0.956015 0.07481 0.748841   0.099823
 H 0.082442 0.079552 0.677299   0.138371
 H 0.036301 0.949603 0.538535   0.095751
 H 0.23234 0.517549 0.039697   0.144276
 H 0.499278 0.452871 0.061474   0.134715
 H 0.55359 0.524571 0.22122   0.095609
 H 0.373724 0.330412 0.92948   0.140704
 H 0.256552 0.523763 0.920346   0.151789
 H 0.18365 0.438269 0.761357   0.097462
 H 0.218447 0.464375 0.28069   0.088522
 H 0.110041 0.32338 0.265643   0.131336
 H 0.20088 0.249175 0.329832   0.098732
 H 0.399203 0.320763 0.406145   0.136652
 H 0.493335 0.458524 0.411186   0.097889
 H 0.808703 0.042543 0.52567   0.141859
 H 0.560778 0.05948 0.608582   0.134872
 H 0.667059 0.219477 0.698703   0.096426
 H 0.553189 0.924947 0.596562   0.140961
 H 0.665295 0.925117 0.39956   0.151093
 H 0.579067 0.765276 0.324175   0.100313
 H 0.063851 0.281261 0.820867   0.088798
 H 0.156589 0.264158 0.945586   0.131374
 H 0.129165 0.326383 0.082051   0.098667
 H 0.007281 0.403112 0.086256   0.137054
 H 0.918918 0.410263 0.95496   0.099072
 H 0.284149 0.476432 0.516462   0.142902
 H 0.953117 0.392567 0.452576   0.134801
 H 0.97087 0.303852 0.525655   0.096712
 H 0.956705 0.402473 0.32868   0.141274
 H 0.26561 0.60229 0.521797   0.151186
 H 0.253361 0.676409 0.434906   0.097607
 H 0.245692 0.183331 0.467541   0.088577
 H 0.210982 0.060325 0.32591   0.130654
 H 0.043953 0.925235 0.251133   0.099927
 H 0.917522 0.920497 0.322672   0.138425
 H 0.963662 0.050449 0.461434   0.09578
 H 0.767632 0.482502 0.96028   0.144118
 H 0.5007 0.547188 0.938501   0.134899
 H 0.446395 0.475494 0.778756   0.095553
 H 0.626244 0.669639 0.070498   0.140778
 H 0.743423 0.476289 0.079629   0.151685
 H 0.816314 0.561776 0.238617   0.097545
 H 0.781529 0.535667 0.719277   0.088595
 H 0.889935 0.676667 0.734333   0.131466
 H 0.799097 0.750875 0.670149   0.098746
 H 0.600774 0.679285 0.59383   0.136659
 H 0.506641 0.541518 0.588778   0.098008
 C 0.17076 0.832163 0.383144   0.134047
 C 0.226833 0.921594 0.437787   -0.182541
 C 0.324468 0.963786 0.441187   0.119064
 C 0.36325 0.912072 0.390809   -0.197498
 C 0.304105 0.822646 0.339948   0.152028
 C 0.061088 0.786647 0.37303   0.574746
 C 0.481684 0.197398 0.508699   0.133077
 C 0.437826 0.106635 0.463177   -0.203297
 C 0.380892 0.059567 0.493143   0.088368
 C 0.37591 0.106547 0.57194   -0.206431
 C 0.424042 0.196939 0.614853   0.163448
 C 0.539641 0.249699 0.474433   0.578658
 C 0.947129 0.694329 0.119298   0.121444
 C 0.895648 0.703198 0.049508   -0.193696
 C 0.911036 0.668409 0.973872   0.002277
 C 0.977889 0.626363 0.970862   -0.161029
 C 0.027263 0.621089 0.043861   0.143684
 C 0.78528 0.613886 0.446209   0.134346
 C 0.787606 0.560068 0.482976   -0.180356
 C 0.882404 0.557391 0.522143   0.117919
 C 0.971162 0.607562 0.519244   -0.197072
 C 0.961973 0.65757 0.478828   0.149248
 C 0.68524 0.623431 0.410255   0.573213
 C 0.973827 0.49255 0.69117   0.133775
 C 0.974919 0.537379 0.644457   -0.204941
 C 0.887746 0.506254 0.567726   0.087588
 C 0.80435 0.427084 0.537768   -0.204118
 C 0.810264 0.38489 0.586637   0.16316
 C 0.06592 0.528073 0.777568   0.574797
 C 0.826402 0.875876 0.567948   0.122241
 C 0.846298 0.944703 0.646549   -0.194944
 C 0.939074 0.019583 0.687698   0.004558
 C 0.009124 0.022833 0.649095   -0.161693
 C 0.983793 0.95075 0.570835   0.143513
 C 0.338341 0.553683 0.166199   0.135366
 C 0.304394 0.517606 0.076669   -0.180868
 C 0.360232 0.4786 0.035886   0.118516
 C 0.451511 0.480869 0.088888   -0.196362
 C 0.482198 0.520522 0.17819   0.15147
 C 0.274252 0.589715 0.210688   0.573553
 C 0.285493 0.311678 0.805472   0.132372
 C 0.332144 0.357531 0.895954   -0.203781
 C 0.320777 0.433865 0.940334   0.08771
 C 0.267541 0.464367 0.891024   -0.204178
 C 0.225589 0.416285 0.801082   0.163652
 C 0.292868 0.226005 0.755921   0.579995
 C 0.25451 0.429059 0.305981   0.122465
 C 0.194924 0.350828 0.298239   -0.19469
 C 0.245759 0.30999 0.334096   0.002315
 C 0.354525 0.348556 0.375962   -0.160876
 C 0.408378 0.426405 0.380046   0.143722
 C 0.829208 0.167882 0.61683   0.134007
 C 0.773134 0.078451 0.562186   -0.182565
 C 0.6755 0.036259 0.558788   0.118862
 C 0.636717 0.087973 0.609164   -0.197559
 C 0.695862 0.177399 0.660024   0.151838
 C 0.938883 0.213397 0.626949   0.574927
 C 0.518287 0.802646 0.491276   0.133239
 C 0.562144 0.893408 0.536798   -0.204033
 C 0.619076 0.940477 0.50683   0.088778
 C 0.624059 0.893497 0.428034   -0.20651
 C 0.575923 0.803106 0.385119   0.163155
 C 0.460335 0.750343 0.525543   0.578427
 C 0.052844 0.305718 0.880682   0.121958
 C 0.104326 0.296852 0.950472   -0.194025
 C 0.088935 0.331642 0.026108   0.002319
 C 0.022079 0.373685 0.029115   -0.160909
 C 0.972706 0.378957 0.956115   0.143675
 C 0.214695 0.38616 0.553765   0.133683
 C 0.212369 0.439974 0.516995   -0.179499
 C 0.117573 0.442658 0.477833   0.117231
 C 0.028813 0.392482 0.480725   -0.196734
 C 0.038002 0.342478 0.521147   0.149491
 C 0.314737 0.376621 0.589733   0.573649
 C 0.026144 0.507498 0.308806   0.132732
 C 0.025055 0.462668 0.355518   -0.204324
 C 0.112231 0.493791 0.432247   0.087713
 C 0.195624 0.572964 0.462206   -0.204203
 C 0.189711 0.615155 0.413334   0.16314
 C 0.934046 0.471976 0.222412   0.575529
 C 0.173564 0.124172 0.432023   0.122301
 C 0.153669 0.055343 0.353423   -0.195396
 C 0.060892 0.980464 0.312275   0.004504
 C 0.990841 0.977217 0.350876   -0.161618
 C 0.016171 0.049301 0.429135   0.143702
 C 0.661635 0.446372 0.833778   0.135474
 C 0.695581 0.482448 0.923308   -0.181039
 C 0.639743 0.521455 0.964091   0.118727
 C 0.548467 0.51919 0.911089   -0.196629
 C 0.517783 0.47954 0.821787   0.151261
 C 0.72572 0.410332 0.789289   0.573298
 C 0.714473 0.688369 0.194506   0.13264
 C 0.667824 0.642519 0.104023   -0.204032
 C 0.679194 0.566186 0.059642   0.087652
 C 0.73243 0.535684 0.108951   -0.203945
 C 0.774376 0.583761 0.198893   0.163523
 C 0.7071 0.774043 0.244059   0.579797
 C 0.745466 0.570984 0.693987   0.122555
 C 0.805052 0.649217 0.701734   -0.194852
 C 0.754218 0.690057 0.665881   0.002545
 C 0.645452 0.65149 0.624011   -0.161156
 C 0.591598 0.573638 0.619921   0.143518
 N 0.208894 0.783203 0.334761   -0.322654
 N 0.473283 0.24141 0.582777   -0.336105
 N 0.012396 0.654211 0.116992   -0.316078
 N 0.871443 0.662066 0.444131   -0.322508
 N 0.891736 0.418013 0.66271   -0.335571
 N 0.894046 0.878399 0.530444   -0.317172
 N 0.426206 0.555128 0.216387   -0.323643
 N 0.231876 0.340523 0.759266   -0.335452
 N 0.35977 0.466474 0.345975   -0.316419
 N 0.791075 0.216842 0.665216   -0.322707
 N 0.526681 0.758634 0.417194   -0.335726
 N 0.987575 0.345834 0.882984   -0.316355
 N 0.128535 0.337993 0.555858   -0.322437
 N 0.108243 0.582026 0.337257   -0.335235
 N 0.105919 0.121651 0.469526   -0.317353
 N 0.573773 0.444931 0.78359   -0.323214
 N 0.768087 0.659522 0.240711   -0.335608
 N 0.640207 0.533568 0.65399   -0.316422
 O 0.006579 0.708739 0.313558   -0.571338
 O 0.031226 0.832079 0.425831   -0.575836
 O 0.549408 0.329064 0.502903   -0.607771
 O 0.572378 0.211659 0.422144   -0.570289
 O 0.689625 0.682608 0.390113   -0.572238
 O 0.602756 0.57065 0.404185   -0.573344
 O 0.047399 0.499318 0.828653   -0.607793
 O 0.150619 0.581574 0.791532   -0.568856
 O 0.298711 0.609656 0.289314   -0.57308
 O 0.197926 0.59604 0.163932   -0.57314
 O 0.22366 0.1748 0.676864   -0.611288
 O 0.364539 0.212681 0.795528   -0.570021
 O 0.993388 0.291307 0.686418   -0.571252
 O 0.968746 0.167967 0.574148   -0.575787
 O 0.45057 0.670979 0.497072   -0.607506
 O 0.427613 0.788386 0.577844   -0.570384
 O 0.310344 0.317434 0.60986   -0.572595
 O 0.397218 0.429392 0.595789   -0.573225
 O 0.952555 0.500738 0.171328   -0.608144
 O 0.849341 0.418495 0.208464   -0.568986
 O 0.701261 0.390388 0.710662   -0.572963
 O 0.802046 0.404008 0.836046   -0.573073
 O 0.776315 0.82525 0.323112   -0.611521
 O 0.63543 0.787368 0.204453   -0.56965
