#{'_ref': 'TBD', '_srcid': 'CAKYAQ_clean', 'submitters': [{'name': 'Dalar Nazarian Jeff Camp and David Sholl', 'email': 'dalar@gatech.edu jcamp6@gatech.edu'}], '_method': 'VASP DFT with PBE;DDEC'}
data_Cd3H14(C5O2)6
_symmetry_space_group_name_H-M   'P 1'
_cell_length_a   7.72099948
_cell_length_b   10.16800015
_cell_length_c   13.46300000
_cell_angle_alpha   68.14799934
_cell_angle_beta   84.67700266
_cell_angle_gamma   76.44600373
_symmetry_Int_Tables_number   1
_chemical_formula_structural   Cd3H14(C5O2)6
_chemical_formula_sum   'Cd3 H14 C30 O12'
_cell_volume   953.659198572
_cell_formula_units_Z   1
loop_
 _symmetry_equiv_pos_site_id
 _symmetry_equiv_pos_as_xyz
  1  'x, y, z'
loop_
 _atom_site_label
 _atom_site_fract_x
 _atom_site_fract_y
 _atom_site_fract_z
 _atom_site_charge
 Cd 0.354566 0.15924 0.046818   1.11278
 Cd 0.645416 0.840642 0.953262   1.11291
 Cd 0.999976 0.499966 3.60000000015e-05   1.144162
 H 0.279526 0.756188 0.32691   0.11522
 H 0.345508 0.632392 0.052035   0.109709
 H 0.400934 0.266714 0.52633   0.115679
 H 0.31323 0.30971 0.364615   0.112773
 H 0.06732 0.65247 0.656395   0.11481
 H 0.112104 0.707832 0.462113   0.114131
 H 0.34281 0.210682 0.720076   0.120618
 H 0.720378 0.24371 0.67316   0.115479
 H 0.654392 0.367538 0.948021   0.109729
 H 0.599018 0.733176 0.473727   0.115545
 H 0.686744 0.690186 0.635436   0.113073
 H 0.932642 0.347418 0.343669   0.114804
 H 0.887828 0.292052 0.537951   0.113835
 H 0.657162 0.789212 0.279984   0.120812
 C 0.321926 0.861876 0.115755   0.675911
 C 0.313332 0.70911 0.183712   -0.112223
 C 0.29187 0.671132 0.294491   -0.071872
 C 0.330562 0.459824 0.204582   -0.099004
 C 0.344708 0.346142 0.157579   0.666428
 C 0.33044 0.603436 0.138246   -0.056646
 C 0.324488 0.351672 0.553712   -0.152404
 C 0.31387 0.422338 0.315692   -0.076012
 C 0.139654 0.5686 0.626937   -0.042576
 C 0.201988 0.42826 0.70082   -0.123397
 C 0.290542 0.527924 0.3624   0.034939
 C 0.16764 0.599416 0.518023   -0.150608
 C 0.261842 0.492044 0.478963   0.077649
 C 0.29399 0.319728 0.662937   -0.043955
 C 0.170092 0.396582 0.817881   0.695504
 C 0.678042 0.138028 0.884325   0.676378
 C 0.68654 0.29081 0.816349   -0.112123
 C 0.708072 0.328766 0.705574   -0.072643
 C 0.669332 0.540096 0.795468   -0.099129
 C 0.655292 0.653786 0.842453   0.666543
 C 0.669518 0.396478 0.861814   -0.056302
 C 0.675472 0.64822 0.446346   -0.152164
 C 0.68611 0.577558 0.684363   -0.076677
 C 0.860302 0.431288 0.373124   -0.042364
 C 0.797992 0.571632 0.299241   -0.123522
 C 0.709344 0.471982 0.637656   0.035459
 C 0.832308 0.400474 0.482039   -0.150289
 C 0.738098 0.507844 0.521097   0.077714
 C 0.705974 0.680162 0.337121   -0.044497
 C 0.829892 0.60331 0.182179   0.695289
 O 0.280336 0.95696 0.159726   -0.571506
 O 0.369182 0.894122 0.017355   -0.640153
 O 0.288872 0.38896 0.058557   -0.703117
 O 0.40819 0.215104 0.2084   -0.541061
 O 0.08807 0.506622 0.842275   -0.617536
 O 0.221568 0.267808 0.883016   -0.636212
 O 0.719622 0.042938 0.840359   -0.571905
 O 0.63078 0.105788 0.982723   -0.640211
 O 0.711112 0.61097 0.94148   -0.703143
 O 0.591828 0.78482 0.791621   -0.541122
 O 0.911924 0.49328 0.157778   -0.617424
 O 0.77845 0.732092 0.117044   -0.636087
