#{'_ref': 'TBD', '_srcid': 'CAKYAQ_clean', 'submitters': [{'name': 'Dalar Nazarian Jeff Camp and David Sholl', 'email': 'dalar@gatech.edu jcamp6@gatech.edu'}], '_method': 'VASP DFT with PBE;DDEC'}
data_CuH7C10IN2
_symmetry_space_group_name_H-M   'P 1'
_cell_length_a   10.20900029
_cell_length_b   10.21749980
_cell_length_c   16.56300000
_cell_angle_alpha   83.41699863
_cell_angle_beta   83.41400209
_cell_angle_gamma   86.00500123
_symmetry_Int_Tables_number   1
_chemical_formula_structural   CuH7C10IN2
_chemical_formula_sum   'Cu4 H28 C40 I4 N8'
_cell_volume   1702.178252
_cell_formula_units_Z   4
loop_
 _symmetry_equiv_pos_site_id
 _symmetry_equiv_pos_as_xyz
  1  'x, y, z'
loop_
 _atom_site_label
 _atom_site_fract_x
 _atom_site_fract_y
 _atom_site_fract_z
 _atom_site_charge
 Cu 0.933584 0.25502 0.833632   0.194192
 Cu 0.771994 0.450508 0.787842   0.206044
 Cu 0.255066 0.933528 0.33367   0.205391
 Cu 0.450572 0.771984 0.287855   0.204954
 H 0.961514 0.090624 0.697391   0.070179
 H 0.37708 0.053652 0.610359   0.116102
 H 0.417046 0.202544 0.714463   0.114593
 H 0.2237 0.28857 0.804732   0.080941
 H 0.26998 0.052074 0.485951   0.078026
 H 0.985236 0.869304 0.669944   0.122143
 H 0.059658 0.753184 0.425113   0.074813
 H 0.952278 0.645682 0.696327   0.074598
 H 0.836038 0.71988 0.451504   0.122455
 H 0.653298 0.435276 0.635536   0.077702
 H 0.614966 0.743582 0.424062   0.070202
 H 0.651034 0.32843 0.511217   0.115746
 H 0.501732 0.288796 0.407219   0.115221
 H 0.416012 0.482126 0.316885   0.080955
 H 0.090778 0.961882 0.19743   0.06986
 H 0.054878 0.37696 0.110156   0.115657
 H 0.204232 0.416618 0.214119   0.114385
 H 0.289858 0.223324 0.30452   0.080892
 H 0.05239 0.270148 0.985901   0.074677
 H 0.869736 0.985556 0.169974   0.122148
 H 0.753384 0.05975 0.925134   0.074241
 H 0.646014 0.95233 0.196397   0.074796
 H 0.720436 0.836154 0.951543   0.122554
 H 0.435716 0.653378 0.135609   0.07787
 H 0.744054 0.614948 0.924058   0.069554
 H 0.328616 0.651562 0.011322   0.11581
 H 0.288624 0.502582 0.90724   0.115104
 H 0.481928 0.416686 0.816886   0.081105
 C 0.064658 0.110646 0.699704   0.072458
 C 0.165488 0.058938 0.645732   -0.000397
 C 0.295034 0.093192 0.650324   -0.07138
 C 0.317362 0.175936 0.708047   -0.144425
 C 0.211014 0.222488 0.759345   0.098513
 C 0.194946 0.981118 0.506561   0.05805
 C 0.132746 0.97162 0.586658   0.020176
 C 0.036388 0.879 0.608255   -0.122896
 C 0.006248 0.798964 0.550471   0.015918
 C 0.075022 0.815386 0.472171   0.066359
 C 0.890028 0.630276 0.649279   0.065331
 C 0.906438 0.699004 0.570974   0.017554
 C 0.826376 0.668784 0.513204   -0.123968
 C 0.733758 0.572432 0.534797   0.018671
 C 0.72427 0.510282 0.614902   0.058438
 C 0.59465 0.640634 0.421783   0.073215
 C 0.646236 0.539808 0.475766   0.000769
 C 0.611608 0.410468 0.471237   -0.069461
 C 0.528644 0.388332 0.413558   -0.145777
 C 0.482268 0.494662 0.362232   0.09941
 C 0.111112 0.0648 0.199699   0.076238
 C 0.059572 0.165602 0.145682   0.001423
 C 0.094264 0.294936 0.150163   -0.070316
 C 0.177262 0.317088 0.20782   -0.144036
 C 0.223586 0.21078 0.259184   0.099681
 C 0.981436 0.195132 0.0   0.073604
 C 0.971912 0.133016 0.086689   0.001441
 C 0.879312 0.036646 0.10828   -0.126118
 C 0.799268 0.006454 0.050524   0.022762
 C 0.81564 0.07516 0.972179   0.048111
 C 0.630642 0.890118 0.149345   0.065843
 C 0.699444 0.90651 0.071042   0.017151
 C 0.669266 0.826488 0.013265   -0.123274
 C 0.572898 0.733878 0.034866   0.018708
 C 0.510736 0.724342 0.114982   0.058448
 C 0.640974 0.59481 0.921788   0.07421
 C 0.540174 0.646444 0.975811   -0.000325
 C 0.410638 0.612084 0.971287   -0.069341
 C 0.3883 0.52928 0.9136   -0.14618
 C 0.49462 0.482806 0.862251   0.100148
 I 0.71027 0.203688 0.766525   -0.468225
 I 0.995302 0.501814 0.854978   -0.469423
 I 0.203546 0.710576 0.266379   -0.468147
 I 0.502136 0.994882 0.355156   -0.468216
 N 0.085394 0.19063 0.755775   -0.200164
 N 0.166974 0.905104 0.449971   -0.187152
 N 0.800356 0.53828 0.671474   -0.187187
 N 0.51453 0.620078 0.36572   -0.200704
 N 0.191244 0.085376 0.255752   -0.20117
 N 0.905294 0.167172 0.949986   -0.158695
 N 0.53869 0.8004 0.171552   -0.186794
 N 0.620224 0.51478 0.865745   -0.201772
