#{'_ref': 'TBD', '_srcid': 'CAKYAQ_clean', 'submitters': [{'name': 'Dalar Nazarian Jeff Camp and David Sholl', 'email': 'dalar@gatech.edu jcamp6@gatech.edu'}], '_method': 'VASP DFT with PBE;DDEC'}
data_ZnH7C12O5
_symmetry_space_group_name_H-M   'P 1'
_cell_length_a   7.63899995
_cell_length_b   12.82400013
_cell_length_c   12.92900000
_cell_angle_alpha   80.64200156
_cell_angle_beta   85.37399863
_cell_angle_gamma   85.50599846
_symmetry_Int_Tables_number   1
_chemical_formula_structural   ZnH7C12O5
_chemical_formula_sum   'Zn4 H28 C48 O20'
_cell_volume   1242.88700266
_cell_formula_units_Z   4
loop_
 _symmetry_equiv_pos_site_id
 _symmetry_equiv_pos_as_xyz
  1  'x, y, z'
loop_
 _atom_site_label
 _atom_site_fract_x
 _atom_site_fract_y
 _atom_site_fract_z
 _atom_site_charge
 Zn 0.430272 0.284046 0.226801   1.078426
 Zn 0.067836 0.773767 0.715815   1.077884
 Zn 0.569724 0.715933 0.773229   1.078794
 Zn 0.93216 0.226212 0.284216   1.078092
 H 0.69547 0.464134 0.951482   0.121955
 H 0.214326 0.448268 0.796235   0.135305
 H 0.06635 0.202429 0.050751   0.1386
 H 0.490416 0.36947 0.859027   0.082313
 H 0.410264 0.304201 0.761861   0.060999
 H 0.496946 0.119603 0.996451   0.10631
 H 0.80487 0.050685 0.534277   0.12199
 H 0.28483 0.204636 0.550824   0.135713
 H 0.436704 0.95129 0.796368   0.140834
 H 0.009768 0.140649 0.631149   0.082714
 H 0.089686 0.239878 0.694374   0.061798
 H 0.006032 0.002953 0.878391   0.107328
 H 0.304526 0.535845 0.048549   0.121468
 H 0.785672 0.551717 0.203802   0.135024
 H 0.93365 0.797551 0.949281   0.137827
 H 0.509586 0.630515 0.141009   0.082147
 H 0.589738 0.695788 0.238172   0.061067
 H 0.503056 0.880385 0.003583   0.106452
 H 0.19513 0.949297 0.465758   0.121121
 H 0.715166 0.795343 0.449206   0.135044
 H 0.56329 0.048691 0.203664   0.137802
 H 0.990228 0.859339 0.368882   0.08246
 H 0.91032 0.760105 0.305661   0.061546
 H 0.993968 0.997033 0.121642   0.107442
 H 0.752046 0.986517 0.01155   0.09938
 H 0.750244 0.28607 0.715143   0.119301
 H 0.247954 0.013471 0.988484   0.099325
 H 0.249756 0.713915 0.284888   0.119268
 C 0.866626 0.328738 0.010843   -0.089883
 C 0.823876 0.422423 0.942656   -0.087781
 C 0.949448 0.464011 0.865733   -0.065839
 C 0.11785 0.412296 0.855072   -0.228909
 C 0.156828 0.31648 0.920489   0.273021
 C 0.031582 0.275503 0.0   -0.166012
 C 0.739182 0.287465 0.098302   0.670855
 C 0.452684 0.29256 0.842889   0.040881
 C 0.606138 0.210773 0.854309   0.07653
 C 0.60805 0.12662 0.938197   -0.155368
 C 0.90277 0.567173 0.797764   0.711182
 C 0.635202 0.991271 0.66989   -0.088482
 C 0.676734 0.059306 0.576187   -0.089811
 C 0.550166 0.135759 0.53477   -0.063524
 C 0.382064 0.146182 0.586651   -0.231586
 C 0.344324 0.080912 0.682384   0.271414
 C 0.470558 0.0 0.723255   -0.167041
 C 0.763478 0.904097 0.710937   0.668163
 C 0.048032 0.15791 0.706904   0.037976
 C 0.89543 0.146075 0.788834   0.077036
 C 0.894632 0.061327 0.872148   -0.157071
 C 0.595724 0.203354 0.431632   0.712618
 C 0.133372 0.671242 0.989188   -0.09097
 C 0.176122 0.577558 0.057376   -0.086118
 C 0.05055 0.53597 0.134298   -0.06706
 C 0.882148 0.587687 0.144962   -0.226954
 C 0.843174 0.683503 0.079545   0.273303
 C 0.968418 0.724477 0.001097   -0.166064
 C 0.260814 0.712512 0.901727   0.67119
 C 0.547318 0.707427 0.157144   0.040684
 C 0.393864 0.789213 0.145723   0.076704
 C 0.391952 0.873367 0.061836   -0.155288
 C 0.097226 0.432805 0.202263   0.711156
 C 0.364796 0.00871 0.330144   -0.089967
 C 0.323266 0.940675 0.423847   -0.086714
 C 0.449834 0.864222 0.465262   -0.066188
 C 0.617934 0.853798 0.413381   -0.227551
 C 0.655672 0.919069 0.317647   0.274946
 C 0.529438 0.997061 0.276778   -0.168385
 C 0.236518 0.095883 0.289097   0.668685
 C 0.951966 0.842074 0.293129   0.038104
 C 0.10457 0.85391 0.211198   0.077124
 C 0.10537 0.938659 0.127885   -0.156467
 C 0.404276 0.796625 0.568399   0.712486
 C 0.751616 0.052303 0.946435   -0.041302
 C 0.750618 0.220129 0.780407   -0.216136
 C 0.248384 0.947683 0.053598   -0.041622
 C 0.249382 0.779856 0.219625   -0.216145
 O 0.58411 0.333228 0.101879   -0.560543
 O 0.785334 0.208942 0.167568   -0.648017
 O 0.740002 0.590714 0.787215   -0.616473
 O 0.03017 0.622193 0.755563   -0.629672
 O 0.311264 0.255918 0.915943   -0.228084
 O 0.918982 0.901424 0.665865   -0.557478
 O 0.717918 0.833677 0.788653   -0.649139
 O 0.75828 0.214347 0.407482   -0.617979
 O 0.467474 0.244561 0.377373   -0.629964
 O 0.19033 0.085189 0.743025   -0.224449
 O 0.41589 0.66675 0.898151   -0.56059
 O 0.214664 0.791038 0.832463   -0.647945
 O 0.259994 0.409265 0.212815   -0.616352
 O 0.969826 0.377786 0.244468   -0.629842
 O 0.688736 0.744066 0.084089   -0.228239
 O 0.081016 0.098557 0.334172   -0.557325
 O 0.282076 0.166303 0.211381   -0.648842
 O 0.241718 0.785635 0.59255   -0.618218
 O 0.532526 0.755417 0.622658   -0.630317
 O 0.809664 0.91479 0.257005   -0.226077
