#{'_ref': 'TBD', '_srcid': 'CAKYAQ_clean', 'submitters': [{'name': 'Dalar Nazarian Jeff Camp and David Sholl', 'email': 'dalar@gatech.edu jcamp6@gatech.edu'}], '_method': 'VASP DFT with PBE;DDEC'}
data_Zn5H10(C8O9)2
_symmetry_space_group_name_H-M   'P 1'
_cell_length_a   8.90050013
_cell_length_b   9.95700000
_cell_length_c   10.17299986
_cell_angle_alpha   82.63299967
_cell_angle_beta   88.72399984
_cell_angle_gamma   86.39600111
_symmetry_Int_Tables_number   1
_chemical_formula_structural   Zn5H10(C8O9)2
_chemical_formula_sum   'Zn5 H10 C16 O18'
_cell_volume   892.252076062
_cell_formula_units_Z   1
loop_
 _symmetry_equiv_pos_site_id
 _symmetry_equiv_pos_as_xyz
  1  'x, y, z'
loop_
 _atom_site_label
 _atom_site_fract_x
 _atom_site_fract_y
 _atom_site_fract_z
 _atom_site_charge
 Zn 0.755762 0.838132 0.671284   1.09308
 Zn 0.705204 0.888226 0.350924   1.0988
 Zn 0.244252 0.161876 0.328698   1.093209
 Zn 0.29481 0.11178 0.649058   1.098778
 Zn 0.0 0.0 0.49999   1.125767
 H 0.706756 0.058924 0.517006   0.463192
 H 0.870324 0.436082 0.584384   0.141925
 H 0.876452 0.91479 0.954034   0.147245
 H 0.433886 0.528564 0.635962   0.154323
 H 0.37124 0.086634 0.925622   0.144638
 H 0.293258 0.941082 0.482976   0.463195
 H 0.12969 0.563926 0.415596   0.141985
 H 0.123562 0.085218 0.045948   0.147118
 H 0.566138 0.471438 0.36402   0.154344
 H 0.62876 0.913354 0.074362   0.144582
 C 0.01536 0.313136 0.462104   0.705757
 C 0.965056 0.442014 0.51451   -0.181091
 C 0.0403 0.006778 0.810878   0.746691
 C 0.973344 0.976972 0.94633   -0.194649
 C 0.576174 0.67357 0.52014   0.707694
 C 0.496732 0.545978 0.542766   -0.187985
 C 0.547226 0.975818 0.818936   0.716309
 C 0.472776 0.019752 0.939198   -0.192452
 C 0.984656 0.686872 0.537878   0.705732
 C 0.034958 0.557994 0.485472   -0.18125
 C 0.959712 0.993234 0.189102   0.746484
 C 0.02667 0.023038 0.053652   -0.194264
 C 0.423848 0.326434 0.47984   0.707677
 C 0.503292 0.454024 0.457216   -0.187987
 C 0.452786 0.024184 0.181048   0.716346
 C 0.52723 0.980244 0.060786   -0.192473
 O 0.76842 0.976566 0.505158   -0.996004
 O 0.962822 0.205726 0.522708   -0.618842
 O 0.10909 0.318618 0.364192   -0.609515
 O 0.981342 0.956234 0.716864   -0.638784
 O 0.154432 0.080618 0.798784   -0.624135
 O 0.569696 0.74521 0.615064   -0.620246
 O 0.645556 0.702398 0.408618   -0.626404
 O 0.66473 0.89485 0.834102   -0.56945
 O 0.495568 0.02132 0.704606   -0.623008
 O 0.231594 0.02344 0.494822   -0.995983
 O 0.037192 0.794282 0.477272   -0.618926
 O 0.890928 0.681388 0.635792   -0.609284
 O 0.01867 0.043774 0.283118   -0.638897
 O 0.845576 0.919396 0.201196   -0.624026
 O 0.43032 0.254796 0.384914   -0.620346
 O 0.354468 0.297604 0.591362   -0.626334
 O 0.335282 0.105154 0.16588   -0.569487
 O 0.504442 0.97868 0.295378   -0.623049
