#{'_ref': 'TBD', '_srcid': 'CAKYAQ_clean', 'submitters': [{'name': 'Dalar Nazarian Jeff Camp and David Sholl', 'email': 'dalar@gatech.edu jcamp6@gatech.edu'}], '_method': 'VASP DFT with PBE;DDEC'}
data_Ag2H15C19N7O4
_symmetry_space_group_name_H-M   'P 1'
_cell_length_a   8.74600023
_cell_length_b   12.06300034
_cell_length_c   24.07864038
_cell_angle_alpha   85.58195076
_cell_angle_beta   79.81190656
_cell_angle_gamma   89.88599934
_symmetry_Int_Tables_number   1
_chemical_formula_structural   Ag2H15C19N7O4
_chemical_formula_sum   'Ag8 H60 C76 N28 O16'
_cell_volume   2492.7084788
_cell_formula_units_Z   4
loop_
 _symmetry_equiv_pos_site_id
 _symmetry_equiv_pos_as_xyz
  1  'x, y, z'
loop_
 _atom_site_label
 _atom_site_fract_x
 _atom_site_fract_y
 _atom_site_fract_z
 _atom_site_charge
 Ag 0.808887 0.492659 0.792563   0.444746
 Ag 0.580948 0.007215 0.203892   0.444221
 Ag 0.184152 0.509167 0.207146   0.442358
 Ag 0.411707 0.0 0.796377   0.43914
 Ag 0.336634 0.014367 0.66478   0.420557
 Ag 0.656182 0.989348 0.335532   0.422552
 Ag 0.9843 0.492629 0.335232   0.418408
 Ag 0.009417 0.511355 0.664225   0.418803
 H 0.747201 0.823277 0.790729   0.135442
 H 0.282408 0.75684 0.868302   0.148215
 H 0.498941 0.487205 0.857183   0.103055
 H 0.312793 0.538184 0.882163   0.134927
 H 0.71707 0.54063 0.920288   0.101728
 H 0.2256 0.503101 0.982074   0.11331
 H 0.506068 0.690874 0.211238   0.138602
 H 0.120776 0.739707 0.12941   0.147931
 H 0.289426 0.016389 0.136086   0.117854
 H 0.16297 0.947375 0.100872   0.137633
 H 0.436184 0.8034 0.033478   0.104153
 H 0.384025 0.152606 0.058139   0.112519
 H 0.24446 0.179758 0.208944   0.13716
 H 0.710028 0.24586 0.132168   0.150499
 H 0.494316 0.515647 0.142978   0.103215
 H 0.680238 0.464306 0.117992   0.136244
 H 0.275922 0.462435 0.079862   0.10166
 H 0.767392 0.499952 0.018086   0.114001
 H 0.486186 0.3113 0.788936   0.138981
 H 0.871979 0.262383 0.870507   0.147448
 H 0.702603 0.0 0.864093   0.115632
 H 0.829667 0.054645 0.899075   0.133957
 H 0.556656 0.198874 0.966762   0.103115
 H 0.60879 0.849669 0.942104   0.11215
 H 0.370426 0.250822 0.582868   0.146188
 H 0.020604 0.008251 0.593372   0.113035
 H 0.336106 0.348533 0.487116   0.104162
 H 0.214599 0.282695 0.447987   0.133731
 H 0.942467 0.33339 0.566735   0.101016
 H 0.233661 0.512999 0.425731   0.119246
 H 0.592962 0.846534 0.657768   0.089381
 H 0.13025 0.799835 0.734434   0.102676
 H 0.446032 0.527463 0.741422   0.103685
 H 0.623189 0.751705 0.417251   0.145506
 H 0.972217 0.99484 0.406855   0.113598
 H 0.657771 0.654039 0.512895   0.105187
 H 0.77927 0.71986 0.552042   0.135306
 H 0.051425 0.669284 0.433171   0.100787
 H 0.760201 0.489662 0.574173   0.11874
 H 0.399342 0.157385 0.342392   0.089428
 H 0.862246 0.20137 0.265588   0.105417
 H 0.548332 0.47561 0.258166   0.103421
 H 0.94623 0.254607 0.415374   0.147713
 H 0.602937 0.497526 0.411607   0.112185
 H 0.826037 0.15271 0.511353   0.105167
 H 0.668442 0.21693 0.552614   0.136314
 H 0.508742 0.170423 0.43311   0.100849
 H 0.661777 0.988527 0.573851   0.12009
 H 0.234755 0.657843 0.341637   0.091675
 H 0.844684 0.707862 0.266108   0.102402
 H 0.167353 0.979106 0.260189   0.103255
 H 0.047353 0.749584 0.584045   0.14873
 H 0.390528 0.506579 0.58787   0.113338
 H 0.167719 0.851484 0.488141   0.105442
 H 0.325435 0.787338 0.446903   0.135541
 H 0.484934 0.83379 0.566458   0.101431
 H 0.331871 0.01569 0.425725   0.119758
 H 0.759617 0.345767 0.657731   0.090989
 H 0.148955 0.296281 0.733717   0.102305
 H 0.824983 0.025449 0.740481   0.10173
 C 0.642412 0.781897 0.813836   0.219838
 C 0.40614 0.750488 0.853124   0.08412
 C 0.436118 0.546765 0.884878   -0.140358
 C 0.467664 0.524952 0.944496   0.07392
 C 0.620138 0.523527 0.955234   -0.124497
 C 0.344782 0.502625 0.989918   -0.142715
 C 0.424092 0.727812 0.186484   0.222324
 C 0.228115 0.750205 0.145175   0.078618
 C 0.284061 0.950592 0.107473   -0.147625
 C 0.396584 0.97488 0.05236   0.081418
 C 0.461519 0.890519 0.019161   -0.14144
 C 0.433041 0.085704 0.032749   -0.129629
 C 0.349582 0.221026 0.186032   0.216841
 C 0.586205 0.252284 0.147123   0.082963
 C 0.55688 0.456019 0.115258   -0.143575
 C 0.525336 0.478045 0.055652   0.076299
 C 0.372858 0.479541 0.044918   -0.125728
 C 0.648217 0.500436 0.010235   -0.143822
 C 0.568275 0.274371 0.813645   0.222209
 C 0.764489 0.251939 0.854835   0.078456
 C 0.708394 0.051621 0.892674   -0.121115
 C 0.596156 0.027406 0.947858   0.070766
 C 0.531298 0.111756 0.981076   -0.13754
 C 0.559762 0.916577 0.96749   -0.127257
 C 0.271512 0.203927 0.57523   0.101388
 C 0.094202 0.080929 0.579414   0.211967
 C 0.216835 0.318299 0.488657   -0.157078
 C 0.102109 0.412168 0.496067   0.081706
 C 0.967633 0.407006 0.537417   -0.165587
 C 0.130146 0.507553 0.458636   -0.127248
 C 0.702654 0.639553 0.67668   0.652924
 C 0.538884 0.680465 0.69558   -0.193201
 C 0.502405 0.79011 0.680659   0.152848
 C 0.245429 0.764374 0.724143   0.136794
 C 0.271726 0.654201 0.742466   -0.184569
 C 0.421069 0.612865 0.727979   0.024527
 C 0.140025 0.582618 0.776417   0.633408
 C 0.721979 0.798741 0.424879   0.102689
 C 0.898902 0.922005 0.420764   0.21003
 C 0.777013 0.684316 0.511357   -0.161054
 C 0.891815 0.590515 0.503869   0.082934
 C 0.026279 0.595682 0.462507   -0.166523
 C 0.863769 0.495125 0.541289   -0.126945
 C 0.290956 0.364568 0.323116   0.65624
 C 0.45444 0.32311 0.30428   -0.194222
 C 0.490213 0.213409 0.319379   0.151915
 C 0.74746 0.237426 0.275898   0.137698
 C 0.721897 0.347557 0.257355   -0.185816
 C 0.572663 0.390166 0.271753   0.024797
 C 0.853952 0.418526 0.223318   0.635282
 C 0.839607 0.301008 0.424799   0.100709
 C 0.664687 0.424221 0.423947   0.207745
 C 0.707568 0.18326 0.511234   -0.159643
 C 0.59907 0.090418 0.503722   0.085993
 C 0.504662 0.09673 0.462444   -0.169299
 C 0.589991 0.994761 0.541035   -0.129934
 C 0.362902 0.864758 0.323264   0.653046
 C 0.216881 0.824744 0.304803   -0.197407
 C 0.166102 0.715115 0.319234   0.150024
 C 0.950538 0.742178 0.276248   0.140954
 C 0.994394 0.852483 0.258452   -0.189311
 C 0.129995 0.8935 0.273073   0.03066
 C 0.895428 0.926417 0.225402   0.623804
 C 0.153953 0.703144 0.574653   0.097769
 C 0.328837 0.57991 0.575527   0.206984
 C 0.286183 0.820962 0.488287   -0.160046
 C 0.394604 0.913804 0.495848   0.085949
 C 0.489012 0.907487 0.537124   -0.168821
 C 0.403679 0.009459 0.458535   -0.130191
 C 0.630462 0.139387 0.676688   0.652407
 C 0.776546 0.179301 0.69519   -0.197568
 C 0.827918 0.288702 0.680394   0.149241
 C 0.043087 0.261891 0.723623   0.138746
 C 0.998607 0.151846 0.741825   -0.196984
 C 0.862909 0.110825 0.727257   0.028316
 C 0.097002 0.078222 0.775268   0.661544
 N 0.640304 0.6757 0.833586   -0.331976
 N 0.500277 0.831776 0.825125   -0.37218
 N 0.488399 0.657057 0.858543   0.184601
 N 0.438549 0.832323 0.164111   -0.324104
 N 0.295989 0.673378 0.175657   -0.363358
 N 0.312149 0.845272 0.137927   0.192196
 N 0.35207 0.327226 0.16625   -0.327752
 N 0.491718 0.171054 0.17499   -0.370894
 N 0.504184 0.345777 0.14154   0.186219
 N 0.553744 0.169922 0.836106   -0.321628
 N 0.696567 0.328752 0.824345   -0.36477
 N 0.680288 0.156945 0.862218   0.180936
 N 0.213178 0.110881 0.60537   -0.364647
 N 0.076111 0.149527 0.535183   -0.353868
 N 0.190452 0.228085 0.533264   0.199734
 N 0.358941 0.832373 0.694453   -0.324966
 N 0.780001 0.891925 0.394805   -0.36526
 N 0.917258 0.853334 0.464932   -0.352546
 N 0.803168 0.774618 0.466806   0.19997
 N 0.633331 0.170619 0.305599   -0.323459
 N 0.807404 0.395135 0.396108   -0.360821
 N 0.607365 0.354018 0.467975   -0.354262
 N 0.720913 0.275386 0.467745   0.200911
 N 0.035656 0.673813 0.305436   -0.329851
 N 0.186077 0.608981 0.603331   -0.359526
 N 0.386272 0.650162 0.531534   -0.35476
 N 0.272747 0.728804 0.531751   0.201399
 N 0.958363 0.33005 0.694167   -0.329794
 O 0.730773 0.540703 0.695933   -0.608555
 O 0.796685 0.703399 0.643497   -0.602211
 O 0.170559 0.504553 0.809895   -0.621796
 O 0.004785 0.611079 0.765997   -0.5726
 O 0.263259 0.46332 0.303605   -0.610423
 O 0.196664 0.301198 0.35647   -0.602624
 O 0.823684 0.496264 0.1896   -0.624236
 O 0.989005 0.390079 0.233919   -0.570343
 O 0.410334 0.963025 0.30358   -0.605371
 O 0.424931 0.800624 0.356387   -0.604721
 O 0.954372 0.013892 0.199062   -0.619447
 O 0.755064 0.88962 0.22901   -0.577158
 O 0.582754 0.041205 0.696422   -0.605301
 O 0.568758 0.203602 0.643504   -0.604829
 O 0.03677 0.0 0.802824   -0.605477
 O 0.238421 0.113029 0.770621   -0.602159
