#{'_ref': 'TBD', '_srcid': 'CAKYAQ_clean', 'submitters': [{'name': 'Dalar Nazarian Jeff Camp and David Sholl', 'email': 'dalar@gatech.edu jcamp6@gatech.edu'}], '_method': 'VASP DFT with PBE;DDEC'}
data_Zn2H32C41(NO3)4
_symmetry_space_group_name_H-M   'P 1'
_cell_length_a   9.72999954
_cell_length_b   13.25699982
_cell_length_c   20.93500000
_cell_angle_alpha   86.32400095
_cell_angle_beta   80.17000237
_cell_angle_gamma   68.89899859
_symmetry_Int_Tables_number   1
_chemical_formula_structural   Zn2H32C41(NO3)4
_chemical_formula_sum   'Zn4 H64 C82 N8 O24'
_cell_volume   2482.35001478
_cell_formula_units_Z   2
loop_
 _symmetry_equiv_pos_site_id
 _symmetry_equiv_pos_as_xyz
  1  'x, y, z'
loop_
 _atom_site_label
 _atom_site_fract_x
 _atom_site_fract_y
 _atom_site_fract_z
 _atom_site_charge
 Zn 0.603956 0.750877 0.002026   0.870198
 Zn 0.145064 0.74744 0.497407   0.871655
 Zn 0.39599 0.24917 0.99799   0.870062
 Zn 0.854826 0.252621 0.502603   0.871531
 H 0.389826 0.645398 0.04673   0.095111
 H 0.370138 0.495997 0.123125   0.159517
 H 0.84464 0.403055 0.125407   0.146025
 H 0.844866 0.551157 0.048923   0.098729
 H 0.762574 0.331091 0.228002   0.078113
 H 0.785898 0.240736 0.162721   0.082451
 H 0.513684 0.115128 0.242814   0.07655
 H 0.53274 0.198491 0.173028   0.094748
 H 0.920296 0.877926 0.138116   0.159721
 H 0.879972 0.752758 0.065338   0.095931
 H 0.442798 0.955517 0.062186   0.088102
 H 0.46402 0.089911 0.131764   0.146111
 H 0.774774 0.856548 0.807786   0.109587
 H 0.965882 0.509978 0.813638   0.111592
 H 0.05793 0.845225 0.926733   0.09809
 H 0.193674 0.0 0.060655   0.100374
 H 0.463688 0.643385 0.455692   0.096126
 H 0.634562 0.495081 0.380222   0.160558
 H 0.253742 0.403364 0.369932   0.146461
 H 0.10334 0.549952 0.446065   0.097469
 H 0.410864 0.329479 0.271304   0.079406
 H 0.475864 0.239736 0.337169   0.082177
 H 0.872364 0.116227 0.258382   0.076573
 H 0.771062 0.200491 0.327457   0.095002
 H 0.700858 0.877964 0.362236   0.1606
 H 0.866458 0.750638 0.433625   0.095991
 H 0.102662 0.954353 0.438347   0.086328
 H 0.947152 0.090788 0.369903   0.147114
 H 0.864694 0.853693 0.688737   0.110188
 H 0.041346 0.506733 0.692584   0.111151
 H 0.596576 0.843956 0.572594   0.10043
 H 0.296668 0.0 0.440077   0.110049
 H 0.610112 0.354667 0.953274   0.09534
 H 0.62978 0.50407 0.876879   0.159735
 H 0.155276 0.597 0.87461   0.146163
 H 0.15507 0.448896 0.951092   0.098767
 H 0.237326 0.668988 0.772009   0.078064
 H 0.214018 0.759334 0.837292   0.082387
 H 0.48624 0.884937 0.7572   0.076431
 H 0.467166 0.801578 0.826986   0.094885
 H 0.07963 0.122151 0.861894   0.159933
 H 0.11996 0.247312 0.934674   0.095811
 H 0.557126 0.04454 0.93783   0.087042
 H 0.535898 0.91015 0.868251   0.146005
 H 0.225154 0.143502 0.192234   0.109796
 H 0.034078 0.490072 0.186371   0.111479
 H 0.942006 0.154842 0.073282   0.104042
 H 0.806258 0.991667 0.939362   0.105554
 H 0.536202 0.356684 0.544324   0.096142
 H 0.365332 0.504998 0.619788   0.160367
 H 0.74616 0.596704 0.630078   0.146384
 H 0.896558 0.45011 0.553949   0.097766
 H 0.589038 0.670585 0.728705   0.079392
 H 0.524048 0.760339 0.662843   0.081656
 H 0.127548 0.883858 0.741629   0.076689
 H 0.228844 0.799593 0.672555   0.094939
 H 0.299046 0.122124 0.637774   0.160638
 H 0.133442 0.249445 0.566384   0.095891
 H 0.897262 0.045713 0.561661   0.086711
 H 0.05277 0.909286 0.630106   0.147039
 H 0.135218 0.146369 0.311281   0.110233
 H 0.95858 0.493327 0.307419   0.111234
 H 0.403338 0.156105 0.427408   0.102226
 H 0.70324 0.991212 0.559929   0.10538
 C 0.486274 0.590792 0.066678   0.166503
 C 0.475646 0.508723 0.108847   -0.303661
 C 0.603476 0.440733 0.133398   0.394732
 C 0.739656 0.454856 0.110891   -0.321447
 C 0.740554 0.539002 0.06798   0.183368
 C 0.707356 0.289663 0.202987   0.005401
 C 0.589796 0.148492 0.211289   0.005221
 C 0.69392 0.992813 0.143428   0.372223
 C 0.81209 0.896494 0.123088   -0.306382
 C 0.789786 0.827279 0.08248   0.156689
 C 0.546204 0.941054 0.080663   0.194102
 C 0.558184 0.014789 0.121225   -0.330797
 C 0.813416 0.683034 0.890452   0.623314
 C 0.864404 0.683217 0.818298   -0.071635
 C 0.835226 0.779949 0.782626   -0.0994
 C 0.941784 0.584793 0.785587   -0.099042
 C 0.29441 0.830493 0.982055   0.624527
 C 0.14164 0.917409 0.992758   -0.088732
 C 0.031518 0.913653 0.958622   -0.081705
 C 0.108172 0.0 0.034425   -0.076281
 C 0.422456 0.589407 0.434196   0.165248
 C 0.516168 0.507926 0.392482   -0.302033
 C 0.457166 0.440508 0.366084   0.394618
 C 0.306356 0.454602 0.386315   -0.324329
 C 0.220266 0.538085 0.42895   0.186217
 C 0.506224 0.289003 0.296875   0.002886
 C 0.76343 0.149759 0.289672   0.004222
 C 0.813354 0.993455 0.357728   0.373542
 C 0.790848 0.896345 0.377366   -0.307596
 C 0.882488 0.825942 0.417235   0.157726
 C 0.013342 0.940193 0.41982   0.195394
 C 0.927596 0.015144 0.379965   -0.332433
 C 0.012256 0.675804 0.611002   0.624232
 C 0.9591 0.679792 0.683119   -0.074844
 C 0.884742 0.778349 0.716052   -0.09882
 C 0.98531 0.583013 0.718581   -0.093816
 C 0.373714 0.829468 0.517896   0.623776
 C 0.440124 0.917003 0.507292   -0.082469
 C 0.55468 0.912969 0.541028   -0.087584
 C 0.386356 0.0 0.465984   -0.092435
 C 0.513658 0.409269 0.933328   0.166309
 C 0.524276 0.491341 0.891158   -0.303579
 C 0.396442 0.559329 0.86661   0.394323
 C 0.260266 0.545202 0.889122   -0.321553
 C 0.25938 0.461052 0.932033   0.183207
 C 0.292552 0.710409 0.797024   0.005483
 C 0.41012 0.851578 0.788723   0.00466
 C 0.306002 0.007257 0.856584   0.372869
 C 0.187834 0.103578 0.876923   -0.306349
 C 0.210142 0.17279 0.917533   0.156419
 C 0.45372 0.059006 0.919352   0.194811
 C 0.441738 0.985274 0.87879   -0.331425
 C 0.18654 0.317007 0.109562   0.6232
 C 0.135536 0.316832 0.181716   -0.072013
 C 0.164702 0.220104 0.217391   -0.099377
 C 0.058162 0.415259 0.214424   -0.099058
 C 0.705524 0.169571 0.017958   0.624828
 C 0.858294 0.082657 0.007259   -0.089466
 C 0.968416 0.086413 0.041395   -0.089478
 C 0.891762 0.995323 0.965592   -0.089076
 C 0.577436 0.410664 0.565818   0.165077
 C 0.483726 0.492148 0.607529   -0.302028
 C 0.54273 0.559567 0.633925   0.395104
 C 0.693542 0.545466 0.613697   -0.324309
 C 0.779632 0.46198 0.571064   0.185644
 C 0.49368 0.71107 0.703134   0.002859
 C 0.236482 0.850323 0.710339   0.004042
 C 0.18656 0.006625 0.642282   0.373726
 C 0.20906 0.103738 0.622643   -0.307982
 C 0.117416 0.174138 0.582774   0.157524
 C 0.98658 0.059878 0.580189   0.195271
 C 0.072324 0.984932 0.620044   -0.3327
 C 0.987648 0.324268 0.389008   0.624061
 C 0.040828 0.32027 0.316896   -0.074429
 C 0.11518 0.221711 0.283965   -0.099056
 C 0.01463 0.417046 0.28143   -0.094067
 C 0.62622 0.170579 0.482102   0.626425
 C 0.559788 0.083058 0.492712   -0.092312
 C 0.445232 0.087094 0.458976   -0.086366
 C 0.613552 0.995057 0.534021   -0.084012
 C 0.642518 0.217959 0.250217   0.043862
 C 0.357394 0.782115 0.749794   0.044501
 N 0.616268 0.608314 0.04694   -0.381055
 N 0.658172 0.84756 0.061246   -0.370533
 N 0.274744 0.606826 0.451758   -0.37901
 N 0.994426 0.845812 0.438476   -0.37084
 N 0.38367 0.39174 0.95307   -0.380746
 N 0.341756 0.152502 0.938768   -0.369952
 N 0.72515 0.393239 0.548256   -0.378438
 N 0.005488 0.154262 0.561534   -0.370219
 O 0.5821 0.367757 0.17787   -0.223402
 O 0.718974 0.059265 0.182661   -0.235347
 O 0.693226 0.764561 0.911434   -0.598221
 O 0.883286 0.608565 0.924982   -0.572366
 O 0.38758 0.840404 0.016962   -0.623141
 O 0.324082 0.756916 0.942167   -0.571151
 O 0.552514 0.368042 0.322156   -0.222879
 O 0.721738 0.060801 0.319116   -0.235374
 O 0.039622 0.761426 0.587233   -0.600659
 O 0.028462 0.595078 0.57909   -0.575478
 O 0.27073 0.839342 0.483057   -0.622343
 O 0.417232 0.755366 0.557629   -0.573365
 O 0.41781 0.632307 0.822137   -0.223574
 O 0.280946 0.94081 0.817348   -0.235138
 O 0.306722 0.235471 0.088583   -0.59828
 O 0.116694 0.391478 0.075028   -0.572242
 O 0.612356 0.159641 0.983055   -0.622969
 O 0.675846 0.243161 0.057837   -0.571871
 O 0.44738 0.632041 0.677849   -0.223006
 O 0.278178 0.93928 0.680895   -0.235341
 O 0.960278 0.238648 0.41278   -0.600545
 O 0.971426 0.405001 0.420916   -0.575682
 O 0.729182 0.160708 0.516954   -0.621608
 O 0.582752 0.244664 0.442354   -0.573245
