#{'_ref': 'TBD', '_srcid': 'CAKYAQ_clean', 'submitters': [{'name': 'Dalar Nazarian Jeff Camp and David Sholl', 'email': 'dalar@gatech.edu jcamp6@gatech.edu'}], '_method': 'VASP DFT with PBE;DDEC'}
data_ZnH2(CO2)2
_symmetry_space_group_name_H-M   'P 1'
_cell_length_a   10.13550035
_cell_length_b   11.56600045
_cell_length_c   14.80100000
_cell_angle_alpha   91.18899996
_cell_angle_beta   90.01499736
_cell_angle_gamma   90.00800129
_symmetry_Int_Tables_number   1
_chemical_formula_structural   ZnH2(CO2)2
_chemical_formula_sum   'Zn12 H24 C24 O48'
_cell_volume   1734.70614491
_cell_formula_units_Z   12
loop_
 _symmetry_equiv_pos_site_id
 _symmetry_equiv_pos_as_xyz
  1  'x, y, z'
loop_
 _atom_site_label
 _atom_site_fract_x
 _atom_site_fract_y
 _atom_site_fract_z
 _atom_site_charge
 Zn 0.07203 0.754844 0.131783   1.079107
 Zn 0.882468 0.741068 0.309292   1.060364
 Zn 0.572026 0.74515 0.368393   1.079719
 Zn 0.382502 0.758884 0.190795   1.059533
 Zn 0.928098 0.245102 0.868429   1.079017
 Zn 0.117468 0.258796 0.690868   1.0601
 Zn 0.428086 0.255012 0.632415   1.079632
 Zn 0.61716 0.24109 0.811308   1.060465
 Zn 6.59999999968e-05 0.500016 4.89999999971e-05   1.07769
 Zn 0.499926 1.79999999972e-05 0.500596   1.08098
 Zn 2.0000000021e-06 0.999864 0.000149999999998   1.086745
 Zn 0.500022 0.499904 0.50011   1.08728
 H 0.242198 0.856802 0.373005   0.031393
 H 0.948406 0.47453 0.271618   0.036212
 H 0.38925 0.562508 0.043161   0.031109
 H 0.795236 0.98229 0.234341   0.021823
 H 0.837432 0.690224 0.921081   0.032665
 H 0.290982 0.999606 0.009664   0.038175
 H 0.742122 0.643186 0.127114   0.031367
 H 0.449986 0.02555 0.22975   0.040852
 H 0.889286 0.937708 0.456783   0.030554
 H 0.295248 0.517648 0.26566   0.023691
 H 0.33726 0.809592 0.578958   0.032521
 H 0.790936 0.500426 0.490566   0.038307
 H 0.757422 0.14341 0.627722   0.031607
 H 0.051442 0.525408 0.728486   0.03663
 H 0.610694 0.437616 0.957421   0.031321
 H 0.204994 0.017778 0.765873   0.023931
 H 0.16248 0.30977 0.079135   0.0328
 H 0.70956 0.999978 0.991071   0.038171
 H 0.257266 0.357252 0.873226   0.030563
 H 0.551696 0.974338 0.77178   0.037089
 H 0.110644 0.062584 0.543242   0.031003
 H 0.70483 0.482844 0.734889   0.022938
 H 0.662974 0.189924 0.422147   0.032506
 H 0.209062 0.499512 0.509822   0.038559
 C 0.160778 0.824402 0.329956   0.61572
 C 0.97525 0.519256 0.208917   0.609027
 C 0.281894 0.576548 0.050889   0.611914
 C 0.86665 0.95279 0.182174   0.620145
 C 0.89832 0.743512 0.967567   0.629692
 C 0.272902 0.92756 0.055659   0.619365
 C 0.66072 0.675584 0.170144   0.615828
 C 0.475212 0.98077 0.291312   0.606376
 C 0.781936 0.9235 0.449127   0.612567
 C 0.366636 0.547164 0.317874   0.614512
 C 0.398278 0.756356 0.532547   0.629465
 C 0.772854 0.572424 0.444522   0.619481
 C 0.83896 0.17572 0.670702   0.616017
 C 0.024652 0.480696 0.7912   0.608823
 C 0.718046 0.423582 0.949652   0.611169
 C 0.133474 0.047188 0.818002   0.614879
 C 0.101622 0.256516 0.032605   0.629267
 C 0.727222 0.072138 0.945122   0.620103
 C 0.338706 0.32451 0.830395   0.616978
 C 0.52481 0.01955 0.709463   0.607469
 C 0.218008 0.076586 0.551046   0.612515
 C 0.633 0.452922 0.683093   0.616451
 C 0.60196 0.24343 0.468367   0.630477
 C 0.227206 0.42757 0.555911   0.61821
 O 0.189416 0.800764 0.247083   -0.621796
 O 0.04928 0.814978 0.366474   -0.558861
 O 0.978328 0.630438 0.214896   -0.628561
 O 4.20000000005e-05 0.459464 0.13969   -0.561871
 O 0.248146 0.650672 0.112871   -0.628415
 O 0.205982 0.519606 0.0   -0.556057
 O 0.912114 0.850048 0.191944   -0.633338
 O 0.89398 0.020436 0.120987   -0.554733
 O 0.972862 0.685708 0.021375   -0.627493
 O 0.888334 0.850896 0.964393   -0.57053
 O 0.151586 0.895636 0.06287   -0.614988
 O 0.37085 0.885758 0.09526   -0.561435
 O 0.689364 0.699216 0.253024   -0.621137
 O 0.549216 0.684996 0.133589   -0.559722
 O 0.478398 0.869598 0.285213   -0.624208
 O 0.500306 0.040378 0.361917   -0.568069
 O 0.748194 0.849282 0.387182   -0.629448
 O 0.70603 0.980342 0.499975   -0.556558
 O 0.41213 0.649918 0.30811   -0.629057
 O 0.39388 0.47865 0.379459   -0.555459
 O 0.47285 0.814248 0.478817   -0.627606
 O 0.388374 0.64896 0.535702   -0.571116
 O 0.651518 0.60428 0.437252   -0.615537
 O 0.87079 0.614262 0.404951   -0.561394
 O 0.810456 0.199358 0.753581   -0.621184
 O 0.950412 0.185044 0.634051   -0.560268
 O 0.021508 0.36952 0.785214   -0.628675
 O 0.999914 0.54052 0.860462   -0.561624
 O 0.751788 0.349182 0.887862   -0.628091
 O 0.79404 0.480768 0.000191999999998   -0.555043
 O 0.087794 0.149846 0.808165   -0.628951
 O 0.106124 0.978564 0.879479   -0.556013
 O 0.027098 0.314348 0.978814   -0.627315
 O 0.111612 0.149128 0.035702   -0.570722
 O 0.8484 0.104128 0.937402   -0.615267
 O 0.628824 0.114024 0.906029   -0.561278
 O 0.310302 0.300668 0.747529   -0.620838
 O 0.45003 0.314954 0.867186   -0.560509
 O 0.521824 0.130692 0.71551   -0.626703
 O 0.499982 0.959568 0.639859   -0.564153
 O 0.251786 0.150706 0.613041   -0.629788
 O 0.293908 0.019602 0.500272   -0.556766
 O 0.586666 0.350718 0.694053   -0.628583
 O 0.60612 0.520646 0.620862   -0.558005
 O 0.527796 0.185822 0.522562   -0.628534
 O 0.611558 0.350792 0.464547   -0.571305
 O 0.348482 0.395526 0.562978   -0.614898
 O 0.129332 0.385994 0.595733   -0.560964
