#{'_ref': 'TBD', '_srcid': 'CAKYAQ_clean', 'submitters': [{'name': 'Dalar Nazarian Jeff Camp and David Sholl', 'email': 'dalar@gatech.edu jcamp6@gatech.edu'}], '_method': 'VASP DFT with PBE;DDEC'}
data_ZnH17C18N5O4
_symmetry_space_group_name_H-M   'P 1'
_cell_length_a   14.55900000
_cell_length_b   15.90499953
_cell_length_c   18.50600012
_cell_angle_alpha   89.98300172
_cell_angle_beta   86.85499851
_cell_angle_gamma   90.09599975
_symmetry_Int_Tables_number   1
_chemical_formula_structural   ZnH17C18N5O4
_chemical_formula_sum   'Zn8 H136 C144 N40 O32'
_cell_volume   4278.80540105
_cell_formula_units_Z   8
loop_
 _symmetry_equiv_pos_site_id
 _symmetry_equiv_pos_as_xyz
  1  'x, y, z'
loop_
 _atom_site_label
 _atom_site_fract_x
 _atom_site_fract_y
 _atom_site_fract_z
 _atom_site_charge
 Zn 0.179541 0.152817 0.625113   0.896469
 Zn 0.17954 0.152817 0.125105   0.873736
 Zn 0.320319 0.652888 0.624781   0.894013
 Zn 0.32032 0.652889 0.124772   0.894101
 Zn 0.820427 0.84718 0.874883   0.89575
 Zn 0.820426 0.847179 0.374875   0.893305
 Zn 0.679651 0.347106 0.875216   0.892114
 Zn 0.679651 0.347107 0.375207   0.894494
 H 0.973612 0.218106 0.488829   0.102567
 H 0.973621 0.218112 0.0   0.07738
 H 0.101417 0.021526 0.859185   0.105622
 H 0.10141 0.02152 0.359183   0.108557
 H 0.863253 0.150672 0.786364   0.115657
 H 0.863244 0.150662 0.286361   0.116477
 H 0.074521 0.349184 0.841985   0.135985
 H 0.074511 0.34918 0.341976   0.13949
 H 0.0 0.263967 0.640537   0.123416
 H 0.0 0.263965 0.140525   0.118721
 H 0.194808 0.226718 0.786234   0.13452
 H 0.194799 0.226714 0.286228   0.135804
 H 0.906495 0.389019 0.803306   0.10721
 H 0.906487 0.389017 0.303291   0.107937
 H 0.880327 0.368365 0.713876   0.118554
 H 0.880323 0.368363 0.213861   0.120404
 H 0.998968 0.476826 0.669505   0.059596
 H 0.998964 0.476823 0.169492   0.060641
 H 0.903344 0.515597 0.722889   0.089618
 H 0.90334 0.515595 0.222874   0.09151
 H 0.345617 0.863383 0.625567   0.131445
 H 0.345617 0.863382 0.125549   0.13282
 H 0.385781 0.85683 0.763408   0.11439
 H 0.385781 0.856825 0.26339   0.115753
 H 0.365171 0.948756 0.816266   0.098628
 H 0.365171 0.94875 0.316251   0.097609
 H 0.276984 0.070284 0.762063   0.140635
 H 0.276986 0.07028 0.26205   0.13789
 H 0.231777 0.974382 0.554616   0.137493
 H 0.231777 0.974385 0.054601   0.130646
 H 0.533834 0.917831 0.784685   0.095594
 H 0.533834 0.917827 0.28467   0.096904
 H 0.51451 0.930133 0.692801   0.079576
 H 0.514511 0.930128 0.192785   0.080452
 H 0.525926 0.717979 0.760906   0.099935
 H 0.525929 0.717972 0.260895   0.099194
 H 0.397899 0.521345 0.890977   0.107204
 H 0.397909 0.521333 0.390963   0.10705
 H 0.636332 0.651083 0.963427   0.117072
 H 0.636341 0.651074 0.463412   0.117436
 H 0.42598 0.848584 0.907158   0.137206
 H 0.425981 0.848581 0.407149   0.135907
 H 0.514304 0.764715 0.609106   0.136856
 H 0.514306 0.764715 0.109097   0.136424
 H 0.305359 0.726252 0.963389   0.135447
 H 0.305359 0.726249 0.46338   0.135
 H 0.593068 0.889761 0.945544   0.107278
 H 0.593067 0.88976 0.445536   0.106113
 H 0.620436 0.868658 0.534622   0.117072
 H 0.620437 0.86866 0.034614   0.116311
 H 0.502477 0.976552 0.580367   0.06183
 H 0.502479 0.976554 0.080358   0.06033
 H 0.597119 0.016018 0.526117   0.090598
 H 0.597119 0.01602 0.026107   0.091156
 H 0.155178 0.362373 0.623309   0.133148
 H 0.155174 0.362377 0.123301   0.129194
 H 0.113563 0.356851 0.985969   0.11118
 H 0.113561 0.35685 0.485964   0.113422
 H 0.134301 0.44896 0.933243   0.09903
 H 0.134299 0.448958 0.433237   0.095997
 H 0.2219 0.571039 0.987981   0.138255
 H 0.221895 0.57104 0.487976   0.137003
 H 0.268602 0.47362 0.694651   0.137578
 H 0.268598 0.473623 0.194643   0.137401
 H 0.965698 0.418097 0.965012   0.099463
 H 0.965696 0.418095 0.465008   0.09561
 H 0.985297 0.429764 0.556913   0.082564
 H 0.985298 0.429761 0.056901   0.079925
 H 0.026349 0.781886 0.011164   0.100875
 H 0.026355 0.781894 0.511153   0.09851
 H 0.898562 0.978485 0.640795   0.10804
 H 0.898557 0.978478 0.140791   0.108437
 H 0.136727 0.849341 0.713618   0.116502
 H 0.136724 0.849336 0.213612   0.11652
 H 0.925467 0.650832 0.658003   0.135745
 H 0.925461 0.650834 0.157992   0.136091
 H 0.014267 0.736045 0.859459   0.136268
 H 0.014266 0.736041 0.359447   0.136991
 H 0.805171 0.773293 0.713751   0.135703
 H 0.805168 0.773295 0.213742   0.135977
 H 0.093489 0.610996 0.696693   0.106555
 H 0.093482 0.610994 0.196679   0.106466
 H 0.119649 0.631652 0.786124   0.116367
 H 0.119645 0.631649 0.286109   0.117155
 H 0.001011 0.52319 0.830492   0.06031
 H 0.001006 0.523188 0.330479   0.061149
 H 0.096636 0.484419 0.77711   0.089614
 H 0.09663 0.484417 0.277097   0.089261
 H 0.654366 0.136629 0.874427   0.130231
 H 0.654356 0.136624 0.374415   0.131969
 H 0.61418 0.143179 0.736596   0.11489
 H 0.61418 0.143175 0.236581   0.114716
 H 0.634785 0.051255 0.683733   0.096469
 H 0.634786 0.05125 0.18372   0.097059
 H 0.722961 0.929713 0.737938   0.137201
 H 0.722966 0.929713 0.237925   0.137609
 H 0.768202 0.025624 0.945375   0.137954
 H 0.768192 0.025622 0.445366   0.13839
 H 0.466125 0.08218 0.715319   0.095491
 H 0.466125 0.082175 0.215303   0.094852
 H 0.485451 0.069878 0.807203   0.080639
 H 0.485449 0.069874 0.307187   0.080161
 H 0.474042 0.282025 0.73909   0.100266
 H 0.474038 0.282027 0.239082   0.099695
 H 0.60206 0.478664 0.60902   0.107297
 H 0.602061 0.478663 0.109012   0.108002
 H 0.363628 0.348923 0.536573   0.116639
 H 0.363629 0.348923 0.036563   0.117154
 H 0.573996 0.151422 0.59284   0.137172
 H 0.573993 0.151422 0.092832   0.122914
 H 0.485664 0.235285 0.890892   0.147518
 H 0.485664 0.235284 0.390884   0.135983
 H 0.694611 0.273757 0.536607   0.136099
 H 0.69461 0.273757 0.036599   0.136426
 H 0.406911 0.110236 0.554455   0.107308
 H 0.406909 0.110236 0.054446   0.101127
 H 0.379536 0.131339 0.965376   0.119057
 H 0.379538 0.131339 0.465369   0.116089
 H 0.497501 0.023451 0.91963   0.063175
 H 0.497503 0.023451 0.419622   0.060294
 H 0.402861 0.98398 0.973878   0.092354
 H 0.402861 0.98398 0.47387   0.09027
 H 0.84479 0.637624 0.876681   0.13243
 H 0.844791 0.637624 0.376671   0.132668
 H 0.886395 0.643156 0.51402   0.115105
 H 0.886395 0.643154 0.014015   0.114297
 H 0.865656 0.551048 0.566749   0.097532
 H 0.865657 0.551046 0.066742   0.096257
 H 0.778061 0.428967 0.512011   0.137751
 H 0.778063 0.428965 0.012005   0.137603
 H 0.731371 0.526373 0.805339   0.137274
 H 0.731372 0.526372 0.305329   0.137053
 H 0.034261 0.581911 0.534981   0.09719
 H 0.034261 0.581909 0.034976   0.095335
 H 0.014664 0.570245 0.943086   0.080543
 H 0.014663 0.570242 0.443076   0.07946
 C 0.977025 0.180269 0.939881   -0.071703
 C 0.977015 0.180261 0.439878   -0.035381
 C 0.046725 0.120146 0.929184   -0.127388
 C 0.046719 0.120142 0.429179   -0.099174
 C 0.83734 0.256772 0.902734   0.635295
 C 0.837332 0.256764 0.40273   0.636909
 C 0.118511 0.111581 0.484699   0.660557
 C 0.118517 0.111585 0.0   0.650256
 C 0.911385 0.192433 0.888728   -0.098095
 C 0.911366 0.192415 0.38873   -0.119659
 C 0.048562 0.0694 0.867485   -0.098809
 C 0.048555 0.069394 0.367481   -0.113601
 C 0.914235 0.142483 0.826621   -0.143694
 C 0.914226 0.142474 0.326617   -0.130491
 C 0.981167 0.079875 0.816442   0.173942
 C 0.981163 0.079871 0.316436   0.17534
 C 0.075608 0.314247 0.791881   -0.162949
 C 0.0756 0.314243 0.291872   -0.15991
 C 0.027338 0.27054 0.687023   0.101084
 C 0.027335 0.270538 0.187011   0.102623
 C 0.13305 0.252346 0.764855   0.027373
 C 0.133043 0.252342 0.264848   0.029758
 C 0.935798 0.389535 0.747358   -0.080231
 C 0.935793 0.389532 0.247344   -0.081699
 C 0.966983 0.478594 0.724863   -0.156617
 C 0.966978 0.478591 0.22485   -0.157388
 C 0.316255 0.923332 0.641778   -0.159316
 C 0.316254 0.923331 0.141762   -0.15389
 C 0.391081 0.925769 0.76294   -0.079502
 C 0.391081 0.925765 0.262924   -0.079465
 C 0.278364 0.029196 0.715472   0.103487
 C 0.278365 0.029193 0.215458   0.1054
 C 0.258565 0.97678 0.608113   0.025642
 C 0.258565 0.976781 0.108099   0.027968
 C 0.491576 0.952606 0.747165   -0.162299
 C 0.491577 0.952602 0.24715   -0.163177
 C 0.522517 0.680205 0.809922   -0.032833
 C 0.522522 0.680198 0.309911   -0.033879
 C 0.452692 0.619967 0.820755   -0.100438
 C 0.452701 0.619956 0.32074   -0.101229
 C 0.662347 0.757006 0.847042   0.636732
 C 0.662347 0.757005 0.347032   0.636904
 C 0.380867 0.611352 0.765224   0.660467
 C 0.380867 0.611351 0.265215   0.660897
 C 0.588189 0.692573 0.861032   -0.12059
 C 0.588198 0.692562 0.361018   -0.120967
 C 0.450832 0.569295 0.882541   -0.110065
 C 0.450839 0.569287 0.382528   -0.110109
 C 0.585321 0.642718 0.923208   -0.128145
 C 0.585327 0.64271 0.423195   -0.128314
 C 0.518365 0.579968 0.933501   0.172986
 C 0.51837 0.579961 0.433489   0.173719
 C 0.424704 0.813963 0.957451   -0.164183
 C 0.424703 0.81396 0.457443   -0.16591
 C 0.472733 0.770942 0.562558   0.075882
 C 0.472735 0.770942 0.062549   0.074867
 C 0.367106 0.752117 0.984728   0.025852
 C 0.367105 0.752114 0.48472   0.025982
 C 0.564498 0.889863 0.001699   -0.082038
 C 0.564497 0.889861 0.501691   -0.081207
 C 0.533514 0.978678 0.524717   -0.158229
 C 0.533514 0.97868 0.024708   -0.158011
 C 0.184092 0.4227 0.607403   -0.158703
 C 0.18409 0.422702 0.107394   -0.161359
 C 0.108511 0.425786 0.986578   -0.07638
 C 0.108509 0.425785 0.486572   -0.077202
 C 0.221025 0.529494 0.534273   0.102898
 C 0.221027 0.529495 0.034263   0.104812
 C 0.241613 0.476309 0.641239   0.027115
 C 0.241611 0.476311 0.14123   0.027583
 C 0.008164 0.452578 0.502616   -0.163961
 C 0.008165 0.452577 0.002605   -0.16647
 C 0.022953 0.819738 0.560103   -0.038507
 C 0.022949 0.819732 0.060098   -0.033324
 C 0.953252 0.879861 0.570801   -0.101683
 C 0.953247 0.879854 0.070796   -0.09817
 C 0.162634 0.743229 0.597257   0.638499
 C 0.162631 0.743226 0.09725   0.637751
 C 0.881452 0.888413 0.015294   0.661341
 C 0.881453 0.888413 0.515285   0.662291
 C 0.0886 0.807581 0.611253   -0.120498
 C 0.088589 0.807569 0.111251   -0.118313
 C 0.951416 0.930609 0.632498   -0.114276
 C 0.951414 0.930606 0.132491   -0.119266
 C 0.085744 0.857528 0.673362   -0.128899
 C 0.085742 0.857524 0.173355   -0.127847
 C 0.018811 0.920136 0.683541   0.177111
 C 0.018811 0.920134 0.183533   0.172534
 C 0.924374 0.685767 0.708108   -0.164528
 C 0.92437 0.685768 0.208097   -0.164813
 C 0.972632 0.729471 0.812972   0.075363
 C 0.97263 0.729469 0.31296   0.075159
 C 0.866927 0.747665 0.735133   0.025052
 C 0.866924 0.747666 0.235123   0.025279
 C 0.064181 0.610481 0.75264   -0.080773
 C 0.064176 0.610479 0.252626   -0.080562
 C 0.032996 0.521422 0.775134   -0.156126
 C 0.032991 0.52142 0.275121   -0.156388
 C 0.68372 0.076676 0.858217   -0.157196
 C 0.683713 0.076672 0.358206   -0.158463
 C 0.608879 0.07424 0.737061   -0.078253
 C 0.608879 0.074235 0.237047   -0.079072
 C 0.72159 0.970804 0.784526   0.10247
 C 0.721592 0.970802 0.284514   0.10197
 C 0.741408 0.023224 0.89188   0.026906
 C 0.741401 0.023221 0.391869   0.026858
 C 0.508383 0.047404 0.752838   -0.163415
 C 0.508383 0.0474 0.252822   -0.162217
 C 0.477449 0.319799 0.690074   -0.033252
 C 0.477448 0.319799 0.190065   -0.033346
 C 0.54727 0.38004 0.679244   -0.100361
 C 0.547271 0.380039 0.179234   -0.100406
 C 0.337624 0.24299 0.652955   0.636952
 C 0.33762 0.242994 0.152948   0.641642
 C 0.619104 0.388644 0.73477   0.660214
 C 0.619102 0.388645 0.234762   0.660345
 C 0.411774 0.307432 0.638966   -0.120233
 C 0.411772 0.307434 0.138958   -0.124321
 C 0.549131 0.43071 0.617457   -0.110688
 C 0.549132 0.430708 0.117447   -0.108605
 C 0.414641 0.357287 0.576791   -0.128746
 C 0.414643 0.357285 0.076781   -0.129042
 C 0.481598 0.420036 0.566497   0.173581
 C 0.481598 0.420036 0.066488   0.17421
 C 0.57527 0.186042 0.542546   -0.164575
 C 0.575268 0.186043 0.042538   -0.115319
 C 0.527235 0.229059 0.93744   0.027776
 C 0.527236 0.229059 0.437431   0.074812
 C 0.632865 0.24789 0.515269   0.02558
 C 0.632863 0.24789 0.015261   -0.016057
 C 0.435479 0.110137 0.498299   -0.081404
 C 0.435477 0.110137 0.0   -0.085643
 C 0.466464 0.021322 0.97528   -0.157714
 C 0.466465 0.021321 0.475272   -0.15741
 C 0.815874 0.577298 0.892589   -0.158322
 C 0.815875 0.577299 0.392579   -0.158859
 C 0.891448 0.57422 0.513413   -0.078557
 C 0.891449 0.574219 0.013407   -0.077324
 C 0.778937 0.470507 0.965721   0.103405
 C 0.778935 0.470509 0.465712   0.103512
 C 0.758356 0.523687 0.858752   0.026374
 C 0.758357 0.523687 0.358742   0.025511
 C 0.991795 0.547428 0.997382   -0.161734
 C 0.991794 0.547428 0.497373   -0.162661
 N 0.009195 0.325969 0.74205   0.075166
 N 0.00919 0.325966 0.242039   0.078394
 N 0.102514 0.225337 0.699199   -0.370151
 N 0.10251 0.225333 0.19919   -0.379883
 N 0.973262 0.031706 0.752654   -0.165076
 N 0.973258 0.0317 0.252649   -0.172608
 N 0.235651 0.04291 0.654547   -0.371684
 N 0.235652 0.04291 0.154534   -0.379087
 N 0.32819 0.957204 0.709873   0.069592
 N 0.328191 0.957201 0.209857   0.070226
 N 0.49107 0.826086 0.007277   0.080817
 N 0.491069 0.826085 0.507269   0.080683
 N 0.397491 0.725532 0.550536   -0.355853
 N 0.397492 0.725533 0.050527   -0.357114
 N 0.526468 0.531948 0.997348   -0.165339
 N 0.526461 0.531952 0.497343   -0.166587
 N 0.263933 0.543011 0.595153   -0.37069
 N 0.263933 0.543012 0.095144   -0.369894
 N 0.171668 0.457064 0.539565   0.066883
 N 0.171669 0.457065 0.039555   0.066707
 N 0.990782 0.674045 0.757943   0.08041
 N 0.990778 0.674044 0.257931   0.079959
 N 0.897456 0.774673 0.800792   -0.355368
 N 0.897454 0.774672 0.300782   -0.355555
 N 0.026717 0.968306 0.747328   -0.173126
 N 0.02672 0.968306 0.247318   -0.165938
 N 0.764309 0.957089 0.845449   -0.37132
 N 0.764308 0.957088 0.345438   -0.371223
 N 0.671772 0.042801 0.790125   0.069248
 N 0.671771 0.042798 0.290113   0.068978
 N 0.508904 0.173916 0.492721   0.08084
 N 0.508903 0.173916 0.0   0.081046
 N 0.602476 0.274471 0.949461   -0.313209
 N 0.602477 0.274471 0.449453   -0.356671
 N 0.473507 0.468046 0.502643   -0.167111
 N 0.473496 0.468055 0.00264   -0.167556
 N 0.736034 0.456987 0.90484   -0.370167
 N 0.736033 0.456988 0.40483   -0.37148
 N 0.828293 0.542938 0.96043   0.066942
 N 0.828292 0.542939 0.460419   0.068027
 O 0.097932 0.15238 0.54467   -0.626693
 O 0.097933 0.152379 0.04466   -0.453591
 O 0.7825 0.267629 0.850431   -0.618279
 O 0.782498 0.267628 0.350422   -0.617314
 O 0.831859 0.295057 0.962039   -0.619781
 O 0.831869 0.295071 0.462024   -0.611011
 O 0.1896 0.069522 0.971426   -0.650413
 O 0.189591 0.069513 0.471421   -0.598127
 O 0.401921 0.651852 0.705123   -0.627937
 O 0.401922 0.651851 0.205114   -0.628341
 O 0.717048 0.767917 0.899449   -0.616004
 O 0.717044 0.76792 0.399442   -0.614356
 O 0.668061 0.795273 0.787714   -0.612541
 O 0.668055 0.795279 0.287708   -0.613868
 O 0.309403 0.569609 0.778561   -0.598227
 O 0.309397 0.569619 0.278556   -0.599125
 O 0.902041 0.847626 0.955319   -0.626932
 O 0.902041 0.847625 0.45531   -0.630286
 O 0.217463 0.732364 0.649566   -0.616303
 O 0.217466 0.732366 0.149557   -0.616847
 O 0.168105 0.704929 0.537959   -0.614811
 O 0.168114 0.704939 0.037946   -0.612095
 O 0.810359 0.93046 0.528569   -0.598933
 O 0.810363 0.930467 0.02856   -0.598458
 O 0.598053 0.348138 0.794869   -0.627823
 O 0.598051 0.34814 0.294861   -0.628164
 O 0.282921 0.232078 0.600549   -0.617694
 O 0.282916 0.232083 0.100542   -0.616315
 O 0.331918 0.204717 0.71228   -0.611575
 O 0.331917 0.204717 0.212271   -0.610343
 O 0.690572 0.43038 0.721432   -0.597995
 O 0.690569 0.430383 0.221424   -0.598221
