#{'_ref': 'TBD', '_srcid': 'CAKYAQ_clean', 'submitters': [{'name': 'Dalar Nazarian Jeff Camp and David Sholl', 'email': 'dalar@gatech.edu jcamp6@gatech.edu'}], '_method': 'VASP DFT with PBE;DDEC'}
data_Cd3H6(C2O3)4
_symmetry_space_group_name_H-M   'P 1'
_cell_length_a   9.65550015
_cell_length_b   14.87100014
_cell_length_c   15.41500000
_cell_angle_alpha   89.99600074
_cell_angle_beta   89.97199743
_cell_angle_gamma   89.96299910
_symmetry_Int_Tables_number   1
_chemical_formula_structural   Cd3H6(C2O3)4
_chemical_formula_sum   'Cd12 H24 C32 O48'
_cell_volume   2213.39201205
_cell_formula_units_Z   4
loop_
 _symmetry_equiv_pos_site_id
 _symmetry_equiv_pos_as_xyz
  1  'x, y, z'
loop_
 _atom_site_label
 _atom_site_fract_x
 _atom_site_fract_y
 _atom_site_fract_z
 _atom_site_charge
 Cd 0.62563 0.878235 0.499062   1.119151
 Cd 0.876212 0.993462 0.381995   1.121494
 Cd 0.75664 0.731274 0.779568   1.119497
 Cd 0.62512 0.122278 0.498854   1.118836
 Cd 0.876232 0.006757 0.615876   1.121757
 Cd 0.756508 0.268562 0.21787   1.118998
 Cd 0.373964 0.621736 0.99899   1.119329
 Cd 0.123366 0.506572 0.882213   1.131417
 Cd 0.24317 0.768689 0.279452   1.119198
 Cd 0.374586 0.377768 0.998836   1.118985
 Cd 0.123184 0.493243 0.116056   1.115763
 Cd 0.2429 0.231551 0.717884   1.119008
 H 0.701934 0.696695 0.429183   0.412604
 H 0.797964 0.905468 0.2144   0.412005
 H 0.924876 0.679109 0.490338   0.110052
 H 0.02913 0.817177 0.549723   0.089943
 H 0.57583 0.969111 0.19224   0.110733
 H 0.475528 0.045083 0.320551   0.090887
 H 0.702034 0.30358 0.568888   0.412402
 H 0.79808 0.093924 0.784315   0.412106
 H 0.924336 0.320973 0.506999   0.110643
 H 0.028486 0.182808 0.447358   0.089874
 H 0.575694 0.030519 0.805967   0.110639
 H 0.47593 0.95525 0.677414   0.091576
 H 0.297666 0.803175 0.928943   0.411641
 H 0.201736 0.594688 0.714537   0.411379
 H 0.074894 0.820944 0.990378   0.110796
 H 0.970424 0.683046 0.049985   0.088064
 H 0.423688 0.530998 0.6922   0.110563
 H 0.524078 0.45497 0.820441   0.090523
 H 0.297706 0.196507 0.068975   0.412626
 H 0.20146 0.406027 0.284405   0.411534
 H 0.075418 0.179078 0.00717   0.110304
 H 0.971464 0.317221 0.947391   0.090364
 H 0.423852 0.469438 0.305876   0.11091
 H 0.523486 0.544758 0.177239   0.091494
 C 0.79333 0.736258 0.590633   0.616997
 C 0.860638 0.73914 0.500571   0.010088
 C 0.953658 0.823724 0.496234   0.096848
 C 0.040624 0.821559 0.41199   0.627557
 C 0.709684 0.076472 0.237761   0.615499
 C 0.640608 0.984363 0.248875   0.012038
 C 0.547838 0.988441 0.33077   0.091528
 C 0.45583 0.903345 0.335113   0.632217
 C 0.792932 0.263763 0.406832   0.617422
 C 0.860192 0.260932 0.496932   0.008458
 C 0.953346 0.176333 0.501087   0.097114
 C 0.04085 0.178407 0.585052   0.626391
 C 0.709864 0.923453 0.759965   0.614764
 C 0.64071 0.015614 0.749291   0.013162
 C 0.548162 0.01192 0.66737   0.090161
 C 0.455918 0.096962 0.663242   0.631046
 C 0.206442 0.763753 0.090568   0.615155
 C 0.139032 0.760863 0.000568999999999   0.009198
 C 0.045858 0.676333 0.996462   0.09848
 C 0.958806 0.678369 0.912283   0.630251
 C 0.289958 0.423577 0.737824   0.615787
 C 0.358966 0.515697 0.74889   0.012108
 C 0.451796 0.511611 0.830691   0.091581
 C 0.543852 0.596675 0.834973   0.631848
 C 0.206916 0.236266 0.906976   0.617107
 C 0.139574 0.239111 0.997099   0.009669
 C 0.04643 0.32372 0.001145   0.09574
 C 0.958534 0.321707 0.085006   0.628028
 C 0.289694 0.576517 0.259995   0.615752
 C 0.358782 0.484366 0.24927   0.012546
 C 0.451272 0.48809 0.167274   0.091237
 C 0.543514 0.403052 0.163147   0.631049
 O 0.672442 0.769525 0.600682   -0.610794
 O 0.866382 0.703645 0.651256   -0.579553
 O 0.760662 0.749932 0.431984   -0.5345
 O 0.873208 0.902436 0.505025   -0.736023
 O 0.040428 0.887919 0.359676   -0.605243
 O 0.11346 0.751626 0.400529   -0.580513
 O 0.830318 0.089572 0.269541   -0.613644
 O 0.638818 0.136541 0.200122   -0.57502
 O 0.739124 0.91357 0.265253   -0.534389
 O 0.62937 0.00137 0.405542   -0.73315
 O 0.456624 0.852353 0.401447   -0.602288
 O 0.379114 0.890827 0.269527   -0.5846
 O 0.672238 0.230411 0.396531   -0.61036
 O 0.866226 0.296323 0.346291   -0.580155
 O 0.760522 0.25019 0.565829   -0.533055
 O 0.872792 0.097706 0.492575   -0.735398
 O 0.040918 0.111994 0.637302   -0.604755
 O 0.113786 0.248253 0.596367   -0.579695
 O 0.831018 0.910631 0.728769   -0.613463
 O 0.638454 0.863121 0.796728   -0.575073
 O 0.739226 0.086422 0.733425   -0.534978
 O 0.629834 0.999189 0.592546   -0.732928
 O 0.45611 0.147839 0.59678   -0.602544
 O 0.379492 0.109503 0.729026   -0.582762
 O 0.32734 0.730491 0.100545   -0.611047
 O 0.133464 0.796414 0.151237   -0.579865
 O 0.238898 0.749964 0.931903   -0.53113
 O 0.126222 0.597601 0.0   -0.737204
 O 0.958528 0.611758 0.860258   -0.6074
 O 0.88636 0.748425 0.900582   -0.584579
 O 0.169332 0.410454 0.769681   -0.614914
 O 0.360884 0.36352 0.700162   -0.575606
 O 0.260424 0.586458 0.765405   -0.534311
 O 0.370278 0.498704 0.905526   -0.732883
 O 0.54302 0.64769 0.901284   -0.602536
 O 0.620628 0.609165 0.769363   -0.58462
 O 0.32763 0.269587 0.896594   -0.609886
 O 0.133608 0.203693 0.846503   -0.579828
 O 0.239172 0.249876 0.065947   -0.533927
 O 0.12702 0.402334 0.992652   -0.735074
 O 0.958096 0.388177 0.137196   -0.604723
 O 0.885622 0.251847 0.096309   -0.579568
 O 0.16849 0.58936 0.228956   -0.613729
 O 0.361262 0.636834 0.29662   -0.573838
 O 0.260292 0.413542 0.233469   -0.533091
 O 0.369536 0.500787 0.092523   -0.734293
 O 0.543602 0.352231 0.096658   -0.601748
 O 0.619676 0.390472 0.228998   -0.583228
