#{'_ref': 'TBD', '_srcid': 'CAKYAQ_clean', 'submitters': [{'name': 'Dalar Nazarian Jeff Camp and David Sholl', 'email': 'dalar@gatech.edu jcamp6@gatech.edu'}], '_method': 'VASP DFT with PBE;DDEC'}
data_CaH4(C3O2)3
_symmetry_space_group_name_H-M   'P 1'
_cell_length_a   6.82000005
_cell_length_b   9.31423284
_cell_length_c   10.18350000
_cell_angle_alpha   67.19279586
_cell_angle_beta   81.43599912
_cell_angle_gamma   73.46097473
_symmetry_Int_Tables_number   1
_chemical_formula_structural   CaH4(C3O2)3
_chemical_formula_sum   'Ca2 H8 C18 O12'
_cell_volume   571.093528278
_cell_formula_units_Z   2
loop_
 _symmetry_equiv_pos_site_id
 _symmetry_equiv_pos_as_xyz
  1  'x, y, z'
loop_
 _atom_site_label
 _atom_site_fract_x
 _atom_site_fract_y
 _atom_site_fract_z
 _atom_site_charge
 Ca 0.24482 0.455198 0.618118   1.53639
 Ca 0.755152 0.544834 0.381872   1.536524
 H 0.249982 0.273026 0.946512   0.409861
 H 0.222412 0.477388 0.098528   0.123997
 H 0.244112 0.91274 0.740178   0.130403
 H 0.274506 0.893016 0.167284   0.127685
 H 0.75002 0.727012 0.05349   0.409928
 H 0.777578 0.522636 0.901466   0.123976
 H 0.75589 0.087294 0.259806   0.130356
 H 0.725488 0.107012 0.832696   0.127661
 C 0.250132 0.675668 0.149518   -0.152673
 C 0.234362 0.601412 0.056836   -0.000877
 C 0.237386 0.685872 0.909228   -0.127536
 C 0.245988 0.84703 0.854922   0.00772
 C 0.255676 0.922894 0.947682   -0.165204
 C 0.26257 0.83561 0.094902   -0.017631
 C 0.253776 0.588036 0.307288   0.752505
 C 0.230366 0.605732 0.808204   0.675311
 C 0.257234 0.095544 0.890178   0.678157
 C 0.749838 0.324366 0.850464   -0.152828
 C 0.765614 0.398618 0.94315   -0.000789
 C 0.762588 0.314166 0.090756   -0.127552
 C 0.753992 0.153008 0.145062   0.007789
 C 0.744306 0.07714 0.052306   -0.16509
 C 0.737408 0.16442 0.90508   -0.017773
 C 0.746198 0.412002 0.692698   0.752602
 C 0.76962 0.394298 0.191786   0.675478
 C 0.742748 0.904502 0.109818   0.678286
 O 0.386886 0.59978 0.376128   -0.741141
 O 0.122824 0.50627 0.371826   -0.738267
 O 0.22511 0.456726 0.858956   -0.725851
 O 0.231048 0.684804 0.675266   -0.642014
 O 0.256056 0.1536 0.990488   -0.508544
 O 0.258384 0.177034 0.760106   -0.622274
 O 0.613088 0.400256 0.62386   -0.741259
 O 0.877156 0.493762 0.628164   -0.73815
 O 0.774874 0.543304 0.14104   -0.725942
 O 0.76894 0.315218 0.324722   -0.642074
 O 0.743946 0.846438 0.00951   -0.508679
 O 0.7416 0.823016 0.23989   -0.622481
