#{'_ref': 'TBD', '_srcid': 'CAKYAQ_clean', 'submitters': [{'name': 'Dalar Nazarian Jeff Camp and David Sholl', 'email': 'dalar@gatech.edu jcamp6@gatech.edu'}], '_method': 'VASP DFT with PBE;DDEC'}
data_ZnH5C10N3O4
_symmetry_space_group_name_H-M   'P 1'
_cell_length_a   12.57500042
_cell_length_b   12.86700007
_cell_length_c   14.51400000
_cell_angle_alpha   88.63199842
_cell_angle_beta   88.66400111
_cell_angle_gamma   86.10500020
_symmetry_Int_Tables_number   1
_chemical_formula_structural   ZnH5C10N3O4
_chemical_formula_sum   'Zn6 H30 C60 N18 O24'
_cell_volume   2341.75572303
_cell_formula_units_Z   6
loop_
 _symmetry_equiv_pos_site_id
 _symmetry_equiv_pos_as_xyz
  1  'x, y, z'
loop_
 _atom_site_label
 _atom_site_fract_x
 _atom_site_fract_y
 _atom_site_fract_z
 _atom_site_charge
 Zn 0.97219 0.368903 0.774423   0.83604
 Zn 0.625673 0.031519 0.726056   0.802274
 Zn 0.027673 0.631272 0.223069   0.785418
 Zn 0.374264 0.968507 0.273785   0.83953
 Zn 0.388853 0.613742 0.749869   0.81201
 Zn 0.61134 0.386485 0.250154   0.811513
 H 0.176291 0.453894 0.509986   0.356382
 H 0.231895 0.550203 0.116115   0.085064
 H 0.287074 0.512819 0.954617   0.149421
 H 0.972641 0.631968 0.872885   0.150488
 H 0.931049 0.668577 0.038743   0.111234
 H 0.593531 0.559123 0.641741   0.102898
 H 0.740924 0.421455 0.640755   0.160485
 H 0.54451 0.827995 0.989694   0.356999
 H 0.461011 0.770276 0.381704   0.087913
 H 0.495053 0.716256 0.544015   0.152975
 H 0.361092 0.019929 0.624454   0.148961
 H 0.329024 0.060983 0.457907   0.106275
 H 0.435277 0.411075 0.857418   0.099967
 H 0.57054 0.262138 0.859194   0.159487
 H 0.827894 0.54156 0.490029   0.356413
 H 0.767541 0.450738 0.882484   0.085622
 H 0.712622 0.487507 0.044132   0.152048
 H 0.027499 0.368878 0.125051   0.147041
 H 0.068673 0.33255 0.959144   0.105942
 H 0.405673 0.440472 0.357448   0.101443
 H 0.257767 0.577751 0.357561   0.159432
 H 0.450431 0.175399 0.011191   0.355222
 H 0.538475 0.229491 0.618241   0.086404
 H 0.50408 0.283757 0.456058   0.151379
 H 0.63905 0.980665 0.374984   0.152968
 H 0.671346 0.939315 0.541439   0.111132
 H 0.566468 0.590378 0.144399   0.101987
 H 0.43053 0.738834 0.141806   0.159805
 H 0.002224 0.0 0.748892   0.305174
 H 0.0 0.010461 0.253472   0.318559
 C 0.15241 0.534886 0.804117   0.369989
 C 0.122026 0.477977 0.667875   -0.003365
 C 0.219209 0.52331 0.664564   0.004974
 C 0.063051 0.424365 0.59921   0.619608
 C 0.295648 0.539426 0.587152   0.610773
 C 0.176219 0.566628 0.060365   0.131788
 C 0.206525 0.544881 0.969832   -0.171977
 C 0.131823 0.564365 0.900235   0.064659
 C 0.031539 0.611542 0.925209   -0.179431
 C 0.008022 0.632036 0.017065   0.131324
 C 0.910195 0.166054 0.754733   0.049513
 C 0.026968 0.154076 0.766124   0.599304
 C 0.592839 0.49391 0.690858   0.146737
 C 0.675111 0.416344 0.690311   -0.195726
 C 0.464846 0.847166 0.694646   0.365269
 C 0.520506 0.879528 0.831247   0.000406
 C 0.477715 0.782799 0.834461   0.002685
 C 0.572919 0.939013 0.900106   0.619129
 C 0.463793 0.707827 0.91208   0.612854
 C 0.44075 0.823967 0.437358   0.139006
 C 0.460579 0.794286 0.528359   -0.166815
 C 0.436237 0.866388 0.597953   0.073988
 C 0.385826 0.963279 0.572318   -0.180679
 C 0.367661 0.986432 0.479986   0.129154
 C 0.834982 0.092463 0.746363   0.000208
 C 0.846466 0.0 0.734149   0.522767
 C 0.502329 0.409225 0.808557   0.146045
 C 0.578549 0.325927 0.809462   -0.197557
 C 0.847867 0.465278 0.194574   0.361005
 C 0.879557 0.520828 0.331109   0.002648
 C 0.782478 0.475262 0.334713   -0.000756
 C 0.939279 0.573607 0.399894   0.618367
 C 0.706705 0.458489 0.412519   0.61336
 C 0.823425 0.434294 0.938075   0.139756
 C 0.793232 0.455703 0.028735   -0.171216
 C 0.868115 0.436308 0.098215   0.075214
 C 0.968384 0.389298 0.072904   -0.184172
 C 0.991726 0.369048 0.980952   0.131367
 C 0.089674 0.833888 0.24503   0.017213
 C 0.0 0.845883 0.233971   0.5017
 C 0.406819 0.505978 0.308671   0.145288
 C 0.32435 0.583368 0.30885   -0.193456
 C 0.534596 0.153413 0.305177   0.372503
 C 0.477592 0.121966 0.168828   -0.004888
 C 0.52047 0.218645 0.16572   0.004903
 C 0.424811 0.062788 0.100013   0.619613
 C 0.533859 0.294122 0.088358   0.61318
 C 0.558942 0.175993 0.562484   0.13424
 C 0.538938 0.205826 0.471542   -0.172171
 C 0.563499 0.133966 0.401787   0.067374
 C 0.614195 0.037146 0.427232   -0.180743
 C 0.632513 0.01384 0.519528   0.132413
 C 0.16481 0.907477 0.253914   0.044909
 C 0.153265 0.019957 0.267196   0.59818
 C 0.498637 0.591704 0.192436   0.148616
 C 0.422219 0.674807 0.191218   -0.196479
 C 0.752324 0.24585 0.750378   0.377231
 C 0.667782 0.329698 0.750009   0.042882
 C 0.247577 0.75417 0.248933   0.377948
 C 0.332146 0.67036 0.2496   0.040805
 N 0.080099 0.485704 0.755778   -0.42819
 N 0.238595 0.558071 0.750942   -0.403675
 N 0.078028 0.607319 0.08464   -0.31878
 N 0.857344 0.262419 0.755869   -0.392575
 N 0.512078 0.919875 0.743176   -0.417703
 N 0.443737 0.762134 0.747941   -0.406041
 N 0.397441 0.91919 0.412537   -0.340274
 N 0.735583 0.143524 0.74496   -0.372833
 N 0.920554 0.514163 0.242815   -0.415596
 N 0.762184 0.441514 0.248165   -0.406531
 N 0.921569 0.393726 0.91348   -0.337963
 N 0.142586 0.737591 0.243159   -0.363067
 N 0.487008 0.08098 0.256622   -0.428195
 N 0.555279 0.238716 0.252095   -0.402558
 N 0.602593 0.08084 0.58713   -0.32568
 N 0.26426 0.856472 0.25494   -0.392666
 N 0.508172 0.491789 0.749777   -0.300414
 N 0.492272 0.508745 0.250683   -0.29915
 O 0.977841 0.385854 0.624083   -0.524359
 O 0.102042 0.417625 0.515169   -0.472167
 O 0.375894 0.590442 0.604778   -0.574401
 O 0.276708 0.501738 0.509326   -0.541906
 O 0.074115 0.236987 0.781295   -0.554745
 O 0.073307 0.063218 0.761592   -0.465356
 O 0.610906 0.023069 0.874954   -0.51922
 O 0.579292 0.902176 0.98442   -0.468323
 O 0.416267 0.62649 0.894518   -0.575027
 O 0.500138 0.728874 0.990217   -0.543229
 O 0.76416 0.931936 0.718738   -0.555856
 O 0.940934 0.932619 0.738018   -0.470334
 O 0.023581 0.61341 0.374636   -0.519069
 O 0.901886 0.578146 0.484585   -0.47329
 O 0.625344 0.409042 0.394894   -0.57711
 O 0.727288 0.494081 0.490781   -0.542601
 O 0.925754 0.763083 0.218214   -0.571007
 O 0.926454 0.936599 0.239384   -0.50827
 O 0.388462 0.977833 0.124773   -0.525876
 O 0.416223 0.100995 0.016227   -0.467011
 O 0.583487 0.374248 0.105601   -0.573126
 O 0.495278 0.27459 0.010725   -0.542341
 O 0.235705 0.067882 0.28194   -0.53001
 O 0.058597 0.067018 0.265106   -0.440841
