#{'_ref': 'TBD', '_srcid': 'CAKYAQ_clean', 'submitters': [{'name': 'Dalar Nazarian Jeff Camp and David Sholl', 'email': 'dalar@gatech.edu jcamp6@gatech.edu'}], '_method': 'VASP DFT with PBE;DDEC'}
data_Zn2H8C11O7
_symmetry_space_group_name_H-M   'P 1'
_cell_length_a   10.37350001
_cell_length_b   13.17050003
_cell_length_c   19.99400000
_cell_angle_alpha   90.02199953
_cell_angle_beta   90.00199943
_cell_angle_gamma   90.30699784
_symmetry_Int_Tables_number   1
_chemical_formula_structural   Zn2H8C11O7
_chemical_formula_sum   'Zn8 H32 C44 O28'
_cell_volume   2731.62448244
_cell_formula_units_Z   4
loop_
 _symmetry_equiv_pos_site_id
 _symmetry_equiv_pos_as_xyz
  1  'x, y, z'
loop_
 _atom_site_label
 _atom_site_fract_x
 _atom_site_fract_y
 _atom_site_fract_z
 _atom_site_charge
 Zn 0.9352 0.116068 0.986072   1.066477
 Zn 0.633326 0.182326 0.985985   1.070498
 Zn 0.564768 0.883942 0.486064   1.066829
 Zn 0.866656 0.817676 0.485973   1.070933
 Zn 0.062004 0.613644 0.514036   1.06788
 Zn 0.366408 0.680146 0.513856   1.071482
 Zn 0.437996 0.386364 0.014017   1.067911
 Zn 0.133556 0.319878 0.013835   1.071192
 H 0.725004 0.46204 0.007844   0.073129
 H 0.62632 0.440254 0.121594   0.126819
 H 0.79845 0.438402 0.12594   0.133567
 H 0.707912 0.322574 0.131271   0.125549
 H 0.957754 0.97362 0.79908   0.113548
 H 0.568636 0.08298 0.792308   0.118595
 H 0.55073 0.026434 0.672665   0.119932
 H 0.9403 0.918194 0.679447   0.120556
 H 0.774946 0.537988 0.506625   0.072907
 H 0.873326 0.557574 0.620608   0.127139
 H 0.7012 0.559514 0.624845   0.133149
 H 0.791904 0.675144 0.631234   0.125754
 H 0.542536 0.02673 0.299179   0.113383
 H 0.931634 0.917704 0.292456   0.11852
 H 0.949572 0.974286 0.172855   0.119412
 H 0.559922 0.082222 0.179587   0.120583
 H 0.277188 0.959048 0.493107   0.072425
 H 0.376604 0.939624 0.379409   0.127119
 H 0.204478 0.93726 0.37473   0.13334
 H 0.294126 0.821864 0.368572   0.125848
 H 0.042586 0.471582 0.70193   0.113575
 H 0.433228 0.580968 0.705448   0.117972
 H 0.45358 0.526134 0.825308   0.119539
 H 0.062482 0.417776 0.821777   0.120574
 H 0.222768 0.040944 0.993325   0.072484
 H 0.123386 0.059728 0.879592   0.127201
 H 0.29551 0.062118 0.874915   0.133156
 H 0.205802 0.177452 0.868541   0.125272
 H 0.457786 0.52775 0.202142   0.113632
 H 0.067056 0.418564 0.205526   0.117864
 H 0.046706 0.473334 0.325433   0.119442
 H 0.437894 0.581486 0.322036   0.121012
 C 0.843102 0.33116 0.012345   0.669803
 C 0.718844 0.386146 0.031262   0.174985
 C 0.712906 0.39775 0.107527   -0.407745
 C 0.774824 0.066866 0.873719   0.694843
 C 0.764006 0.031458 0.802739   -0.090515
 C 0.869036 0.984914 0.771051   -0.07716
 C 0.64917 0.04659 0.767097   -0.078555
 C 0.733362 0.9336 0.59816   0.694276
 C 0.74445 0.968916 0.669146   -0.091498
 C 0.639418 0.015474 0.700801   -0.07957
 C 0.859462 0.954118 0.704683   -0.082355
 C 0.65689 0.66875 0.512096   0.66961
 C 0.781096 0.613454 0.530687   0.176388
 C 0.78685 0.600424 0.606841   -0.408141
 C 0.725174 0.933222 0.373744   0.69493
 C 0.736054 0.96877 0.302809   -0.089747
 C 0.63111 0.015178 0.271072   -0.076858
 C 0.851018 0.95392 0.267221   -0.079705
 C 0.766598 0.066332 0.098144   0.693875
 C 0.755486 0.030906 0.16909   -0.091503
 C 0.860784 0.985052 0.200942   -0.078414
 C 0.640646 0.046004 0.204723   -0.082675
 C 0.158024 0.827828 0.487422   0.666871
 C 0.282984 0.883596 0.469071   0.178627
 C 0.28958 0.89658 0.392943   -0.409081
 C 0.22486 0.56464 0.625828   0.69894
 C 0.236826 0.529546 0.69675   -0.091367
 C 0.132088 0.48337 0.729343   -0.07753
 C 0.352892 0.544982 0.731461   -0.078789
 C 0.270682 0.435072 0.901686   0.695227
 C 0.259 0.469128 0.830528   -0.092071
 C 0.364002 0.514846 0.797852   -0.078821
 C 0.143022 0.453512 0.795794   -0.082513
 C 0.341946 0.172122 0.98743   0.666762
 C 0.216982 0.116272 0.969153   0.178535
 C 0.210388 0.10287 0.89305   -0.408375
 C 0.275274 0.435184 0.125882   0.698809
 C 0.263462 0.469974 0.196886   -0.091856
 C 0.368268 0.516 0.229535   -0.077168
 C 0.147402 0.454498 0.231581   -0.078735
 C 0.229486 0.564666 0.401788   0.695045
 C 0.24129 0.53032 0.330688   -0.091985
 C 0.136292 0.484604 0.29799   -0.078587
 C 0.357332 0.545824 0.296005   -0.083083
 O 0.828644 0.244582 0.983436   -0.65158
 O 0.609912 0.33263 0.005464   -0.726284
 O 0.949196 0.371922 0.026912   -0.562241
 O 0.8828 0.04933 0.903125   -0.62363
 O 0.678242 0.11128 0.898978   -0.59529
 O 0.623776 0.946536 0.569825   -0.619426
 O 0.832344 0.892982 0.572053   -0.615151
 O 0.671404 0.755456 0.483419   -0.651772
 O 0.89013 0.667374 0.505412   -0.727053
 O 0.55078 0.62802 0.526636   -0.562413
 O 0.617152 0.950674 0.403139   -0.62415
 O 0.82173 0.888766 0.398978   -0.595251
 O 0.8762 0.053444 0.069812   -0.619229
 O 0.66765 0.107034 0.072073   -0.615035
 O 0.17151 0.741824 0.516879   -0.649687
 O 0.39162 0.830264 0.494661   -0.727759
 O 0.05227 0.867518 0.471937   -0.563596
 O 0.116244 0.547158 0.596834   -0.626442
 O 0.321784 0.609012 0.600322   -0.596609
 O 0.38048 0.448676 0.929846   -0.620393
 O 0.17144 0.394684 0.928119   -0.616272
 O 0.328452 0.25819 0.016854   -0.649781
 O 0.108344 0.169738 0.994641   -0.727611
 O 0.447702 0.132418 0.971948   -0.563464
 O 0.383816 0.452802 0.096861   -0.626269
 O 0.178268 0.390962 0.100329   -0.596321
 O 0.119664 0.551186 0.429925   -0.620373
 O 0.32866 0.60525 0.428178   -0.616241
