#{'_ref': 'TBD', '_srcid': 'CAKYAQ_clean', 'submitters': [{'name': 'Dalar Nazarian Jeff Camp and David Sholl', 'email': 'dalar@gatech.edu jcamp6@gatech.edu'}], '_method': 'VASP DFT with PBE;DDEC'}
data_CdH6(C3O)4
_symmetry_space_group_name_H-M   'P 1'
_cell_length_a   12.11900026
_cell_length_b   14.54200024
_cell_length_c   15.22900000
_cell_angle_alpha   90.00200153
_cell_angle_beta   90.03499964
_cell_angle_gamma   90.59200123
_symmetry_Int_Tables_number   1
_chemical_formula_structural   CdH6(C3O)4
_chemical_formula_sum   'Cd8 H48 C96 O32'
_cell_volume   2683.73150839
_cell_formula_units_Z   8
loop_
 _symmetry_equiv_pos_site_id
 _symmetry_equiv_pos_as_xyz
  1  'x, y, z'
loop_
 _atom_site_label
 _atom_site_fract_x
 _atom_site_fract_y
 _atom_site_fract_z
 _atom_site_charge
 Cd 0.702911 0.708045 0.965976   1.147242
 Cd 0.202899 0.708064 0.965984   1.147469
 Cd 0.551736 0.291967 0.465978   1.147131
 Cd 0.051721 0.291986 0.465993   1.147095
 Cd 0.800805 0.207508 0.526989   1.147826
 Cd 0.300791 0.207509 0.527004   1.148203
 Cd 0.953887 0.792552 0.026995   1.148112
 Cd 0.453877 0.792553 0.027006   1.148237
 H 0.541146 0.750728 0.726325   0.111235
 H 0.040976 0.750744 0.726384   0.108718
 H 0.48243 0.702412 0.577518   0.100022
 H 0.0 0.702409 0.577605   0.104278
 H 0.458296 0.819158 0.459662   0.100043
 H 0.0 0.819129 0.459723   0.093623
 H 0.492131 0.98397 0.490539   0.128903
 H 0.0 0.983937 0.490546   0.127914
 H 0.623278 0.153759 0.74199   0.116537
 H 0.123308 0.15375 0.741943   0.115831
 H 0.625048 0.039498 0.863936   0.107618
 H 0.125101 0.039511 0.863906   0.107539
 H 0.713444 0.249296 0.226508   0.111188
 H 0.213305 0.249335 0.226521   0.111048
 H 0.772384 0.297703 0.077846   0.09985
 H 0.272179 0.297773 0.077856   0.099832
 H 0.796834 0.181013 0.959981   0.100277
 H 0.296647 0.181101 0.959974   0.100254
 H 0.76296 0.01618 0.990688   0.128991
 H 0.262857 0.016253 0.990675   0.129171
 H 0.631316 0.846274 0.241817   0.116692
 H 0.131312 0.846296 0.241805   0.1161
 H 0.629367 0.960475 0.363811   0.10825
 H 0.129361 0.960483 0.363812   0.108473
 H 0.967637 0.252807 0.765892   0.111077
 H 0.467775 0.252871 0.76583   0.110934
 H 0.025384 0.205865 0.915061   0.101014
 H 0.525616 0.205928 0.914976   0.100821
 H 0.045898 0.323028 0.033322   0.100346
 H 0.546129 0.323086 0.033243   0.100601
 H 0.010009 0.486885 0.002454   0.1287
 H 0.510176 0.486934 0.002398   0.12847
 H 0.879426 0.653443 0.750023   0.115905
 H 0.379458 0.653486 0.750001   0.115846
 H 0.879753 0.539096 0.628172   0.109159
 H 0.379776 0.539146 0.628144   0.107745
 H 0.787508 0.747261 0.265726   0.111195
 H 0.287398 0.74722 0.265737   0.111264
 H 0.729616 0.794351 0.414757   0.100992
 H 0.229451 0.794269 0.414767   0.100465
 H 0.708639 0.677258 0.532988   0.100632
 H 0.208485 0.677146 0.532976   0.100869
 H 0.744359 0.513342 0.502273   0.127519
 H 0.244282 0.513251 0.502241   0.128139
 H 0.875323 0.346586 0.250181   0.116249
 H 0.375385 0.34657 0.250153   0.11659
 H 0.87515 0.460845 0.128271   0.107334
 H 0.375219 0.46085 0.128261   0.108074
 C 0.582152 0.861223 0.859023   0.688505
 C 0.082137 0.861236 0.859025   0.687927
 C 0.579278 0.925883 0.781731   -0.080846
 C 0.07925 0.925892 0.78173   -0.078813
 C 0.549911 0.895803 0.695271   0.059056
 C 0.049826 0.895805 0.695285   0.05254
 C 0.529281 0.801719 0.675067   -0.134603
 C 0.029123 0.801724 0.675114   -0.123434
 C 0.497387 0.774937 0.591957   -0.09042
 C 0.0 0.774931 0.59202   -0.104666
 C 0.484225 0.841144 0.525019   -0.071864
 C 0.0 0.841125 0.525068   -0.049973
 C 0.503657 0.933086 0.541954   -0.156404
 C 0.003529 0.933066 0.541973   -0.161537
 C 0.537464 0.963444 0.626659   0.088733
 C 0.037384 0.963436 0.626663   0.091007
 C 0.564124 0.057639 0.645997   -0.167923
 C 0.064097 0.057626 0.645978   -0.172259
 C 0.551394 0.133532 0.581415   0.699216
 C 0.051372 0.133519 0.581397   0.69844
 C 0.600546 0.082319 0.72934   -0.058929
 C 0.100554 0.082312 0.729311   -0.05568
 C 0.60364 0.017643 0.797599   -0.095618
 C 0.103656 0.017647 0.797578   -0.099708
 C 0.672414 0.13877 0.359049   0.688854
 C 0.172381 0.138783 0.35906   0.688406
 C 0.675272 0.074125 0.281744   -0.079229
 C 0.17523 0.074147 0.281751   -0.078012
 C 0.70478 0.104236 0.195358   0.057879
 C 0.204689 0.104276 0.19536   0.058273
 C 0.725406 0.198335 0.175244   -0.133358
 C 0.225282 0.198382 0.175253   -0.133774
 C 0.757445 0.225166 0.09222   -0.090788
 C 0.257275 0.22523 0.092223   -0.090126
 C 0.770764 0.158989 0.025284   -0.071627
 C 0.27061 0.159062 0.02528   -0.070958
 C 0.75132 0.067032 0.042125   -0.157389
 C 0.251202 0.067099 0.042116   -0.156953
 C 0.717324 0.036628 0.126733   0.088955
 C 0.217255 0.036677 0.126731   0.088509
 C 0.690621 0.942426 0.145981   -0.168819
 C 0.190576 0.942468 0.145971   -0.167454
 C 0.703344 0.866543 0.081396   0.698995
 C 0.203331 0.866582 0.081391   0.698626
 C 0.654059 0.91772 0.229243   -0.057144
 C 0.154042 0.917746 0.229236   -0.057855
 C 0.650879 0.982362 0.297528   -0.097668
 C 0.150853 0.98238 0.297527   -0.099189
 C 0.924581 0.361559 0.633566   0.689986
 C 0.424584 0.361593 0.63354   0.689429
 C 0.926719 0.426729 0.710581   -0.077701
 C 0.426783 0.42678 0.710543   -0.077399
 C 0.956009 0.397532 0.797164   0.05721
 C 0.456089 0.397583 0.797121   0.05696
 C 0.977989 0.304024 0.81734   -0.132991
 C 0.478151 0.304085 0.817276   -0.132905
 C 0.009386 0.277967 0.900615   -0.091455
 C 0.509569 0.278025 0.900545   -0.091042
 C 0.020559 0.344414 0.967754   -0.07064
 C 0.520765 0.344472 0.967682   -0.070525
 C 0.999939 0.435837 0.950812   -0.157503
 C 0.500074 0.435886 0.95076   -0.157802
 C 0.966659 0.465431 0.865915   0.088859
 C 0.466787 0.465482 0.865866   0.089522
 C 0.938845 0.55895 0.846415   -0.171912
 C 0.438883 0.558988 0.846391   -0.171514
 C 0.949967 0.635197 0.910995   0.699687
 C 0.449981 0.635228 0.910978   0.699128
 C 0.902895 0.5826 0.762832   -0.052526
 C 0.402955 0.582648 0.762804   -0.05318
 C 0.901174 0.517818 0.694567   -0.101134
 C 0.401209 0.517865 0.694537   -0.100434
 C 0.830244 0.638422 0.133524   0.690841
 C 0.330223 0.638416 0.133526   0.690673
 C 0.828151 0.573281 0.210553   -0.077301
 C 0.328133 0.57326 0.210545   -0.076345
 C 0.798846 0.602541 0.297083   0.056798
 C 0.298791 0.602499 0.297074   0.056705
 C 0.776962 0.696082 0.31717   -0.134391
 C 0.276855 0.696029 0.31717   -0.132085
 C 0.745505 0.72222 0.400376   -0.088635
 C 0.245373 0.722145 0.400377   -0.09225
 C 0.734075 0.655809 0.467505   -0.07247
 C 0.233946 0.655719 0.467493   -0.07235
 C 0.75462 0.564356 0.450652   -0.156622
 C 0.25454 0.564276 0.450631   -0.155567
 C 0.788008 0.53468 0.365839   0.089544
 C 0.287953 0.534625 0.365816   0.08938
 C 0.815814 0.441138 0.346433   -0.171941
 C 0.315813 0.441095 0.346408   -0.171004
 C 0.804634 0.364892 0.411001   0.697963
 C 0.304634 0.36485 0.410975   0.697711
 C 0.851858 0.417441 0.262917   -0.054162
 C 0.351886 0.417416 0.262895   -0.05274
 C 0.853684 0.482179 0.194622   -0.10122
 C 0.353716 0.482167 0.19461   -0.100416
 O 0.63909 0.788367 0.851585   -0.597976
 O 0.139082 0.788384 0.851589   -0.598546
 O 0.527613 0.887016 0.925978   -0.600897
 O 0.027594 0.887027 0.925979   -0.600404
 O 0.9723 0.133504 0.526063   -0.632076
 O 0.472299 0.133514 0.526083   -0.63344
 O 0.620932 0.201447 0.584595   -0.658425
 O 0.12091 0.201435 0.584585   -0.658618
 O 0.615458 0.211618 0.351606   -0.598865
 O 0.11543 0.211635 0.351621   -0.598287
 O 0.727005 0.112964 0.426025   -0.600557
 O 0.226985 0.112973 0.426027   -0.601798
 O 0.782388 0.866559 0.026098   -0.633462
 O 0.282387 0.866595 0.026105   -0.633152
 O 0.63383 0.79861 0.084561   -0.658657
 O 0.133815 0.798649 0.08455   -0.658618
 O 0.866138 0.288509 0.640947   -0.600025
 O 0.366127 0.288551 0.640943   -0.600085
 O 0.980874 0.387085 0.567135   -0.600576
 O 0.48088 0.387089 0.567101   -0.599882
 O 0.528071 0.636859 0.967332   -0.634547
 O 0.028067 0.636836 0.967321   -0.635112
 O 0.880638 0.701932 0.907145   -0.658108
 O 0.380627 0.701944 0.907139   -0.657842
 O 0.888655 0.711493 0.140912   -0.600671
 O 0.388631 0.711487 0.14092   -0.600724
 O 0.773854 0.612879 0.067093   -0.600664
 O 0.273824 0.612885 0.067094   -0.600555
 O 0.72654 0.363252 0.467271   -0.634106
 O 0.226549 0.363225 0.467255   -0.634244
 O 0.87393 0.298133 0.40718   -0.657113
 O 0.373929 0.29809 0.407164   -0.656746
