#{'_ref': 'TBD', '_srcid': 'CAKYAQ_clean', 'submitters': [{'name': 'Dalar Nazarian Jeff Camp and David Sholl', 'email': 'dalar@gatech.edu jcamp6@gatech.edu'}], '_method': 'VASP DFT with PBE;DDEC'}
data_YPH7C5NO7
_symmetry_space_group_name_H-M   'P 1'
_cell_length_a   8.91899960
_cell_length_b   10.10349961
_cell_length_c   15.05100000
_cell_angle_alpha   90.02099929
_cell_angle_beta   90.19299702
_cell_angle_gamma   90.16500233
_symmetry_Int_Tables_number   1
_chemical_formula_structural   YPH7C5NO7
_chemical_formula_sum   'Y4 P4 H28 C20 N4 O28'
_cell_volume   1356.2789887
_cell_formula_units_Z   4
loop_
 _symmetry_equiv_pos_site_id
 _symmetry_equiv_pos_as_xyz
  1  'x, y, z'
loop_
 _atom_site_label
 _atom_site_fract_x
 _atom_site_fract_y
 _atom_site_fract_z
 _atom_site_charge
 Y 0.682296 0.059486 0.391262   2.017376
 Y 0.315428 0.440102 0.891612   2.016214
 Y 0.180454 0.940016 0.109713   2.016623
 Y 0.814606 0.559972 0.611179   2.016888
 P 0.000138 0.13518 0.284791   1.556434
 P 0.995942 0.36474 0.785889   1.55388
 P 0.498516 0.86471 0.216339   1.555334
 P 0.496618 0.63548 0.716805   1.554964
 H 0.806516 0.150076 0.176559   0.177265
 H 0.89635 0.30702 0.186479   0.165601
 H 0.8694 0.42834 0.313845   0.139823
 H 0.678804 0.453606 0.334504   0.148394
 H 0.576078 0.375668 0.205499   0.131462
 H 0.571576 0.201656 0.187999   0.155607
 H 0.194432 0.26949 0.321225   0.407788
 H 0.187484 0.351786 0.676902   0.177146
 H 0.098264 0.194492 0.686154   0.1654
 H 0.129546 0.070448 0.812022   0.138826
 H 0.320408 0.047604 0.83365   0.148843
 H 0.419504 0.126274 0.704058   0.131514
 H 0.423726 0.300588 0.687754   0.155385
 H 0.803034 0.230074 0.821814   0.407889
 H 0.306132 0.850432 0.324753   0.176886
 H 0.394794 0.693404 0.314932   0.16507
 H 0.36226 0.568884 0.189459   0.139687
 H 0.171574 0.548356 0.165587   0.147425
 H 0.073412 0.625694 0.296414   0.13081
 H 0.07019 0.79996 0.312855   0.155336
 H 0.69111 0.730132 0.179811   0.409047
 H 0.68975 0.649288 0.825592   0.177047
 H 0.601004 0.80632 0.816043   0.166318
 H 0.631458 0.929898 0.689508   0.140489
 H 0.822412 0.952956 0.668399   0.14768
 H 0.922154 0.874786 0.798285   0.130988
 H 0.925142 0.700604 0.815007   0.155194
 H 0.303728 0.770082 0.681408   0.40798
 C 0.851502 0.22232 0.224411   -0.518512
 C 0.768396 0.379328 0.339509   -0.286598
 C 0.791832 0.352588 0.438166   0.791564
 C 0.583892 0.279046 0.239071   -0.289862
 C 0.451658 0.258602 0.302123   0.726457
 C 0.143692 0.278826 0.724443   -0.517854
 C 0.229584 0.120714 0.838339   -0.285711
 C 0.206022 0.1465 0.93697   0.790536
 C 0.412012 0.222442 0.738259   -0.289777
 C 0.544764 0.241888 0.801684   0.726178
 C 0.350018 0.778054 0.276968   -0.517003
 C 0.264066 0.620486 0.162318   -0.284298
 C 0.290654 0.647248 0.064045   0.789358
 C 0.081686 0.72187 0.26229   -0.289686
 C 0.949266 0.741462 0.198781   0.726263
 C 0.645586 0.721896 0.77791   -0.519652
 C 0.731206 0.879714 0.663566   -0.285655
 C 0.707406 0.853382 0.564847   0.792021
 C 0.913776 0.77847 0.764268   -0.288874
 C 0.046122 0.758336 0.701333   0.726307
 N 0.72896 0.260764 0.285573   -0.101143
 N 0.267556 0.239946 0.784997   -0.100955
 N 0.226474 0.739496 0.215891   -0.101786
 N 0.768944 0.760722 0.71728   -0.100408
 O 0.7628 0.240146 0.470265   -0.685252
 O 0.836864 0.451178 0.484331   -0.720395
 O 0.331936 0.319048 0.284518   -0.558282
 O 0.471064 0.17743 0.366613   -0.70745
 O 0.086616 0.238056 0.343372   -0.721724
 O 0.101846 0.071418 0.215574   -0.927511
 O 0.915504 0.037638 0.344752   -0.900704
 O 0.236044 0.258314 0.969936   -0.685274
 O 0.160362 0.047442 0.982219   -0.719602
 O 0.664282 0.181476 0.784188   -0.558484
 O 0.525588 0.322266 0.866645   -0.708549
 O 0.911106 0.260742 0.844072   -0.720197
 O 0.892016 0.428886 0.717678   -0.926393
 O 0.081262 0.461916 0.846114   -0.899435
 O 0.26184 0.759356 0.031477   -0.684182
 O 0.337194 0.548894 0.018591   -0.719578
 O 0.82936 0.681124 0.216453   -0.559623
 O 0.96894 0.821792 0.13383   -0.70743
 O 0.58294 0.761022 0.158097   -0.721464
 O 0.602068 0.928468 0.285194   -0.927805
 O 0.414142 0.962224 0.156222   -0.899324
 O 0.736262 0.741128 0.532554   -0.686757
 O 0.662588 0.951938 0.518869   -0.71992
 O 0.166228 0.81869 0.719001   -0.558221
 O 0.026032 0.677472 0.63663   -0.708371
 O 0.411308 0.739432 0.658925   -0.721348
 O 0.393668 0.571164 0.7853   -0.926553
 O 0.580528 0.538584 0.656272   -0.899691
