#{'_ref': 'TBD', '_srcid': 'CAKYAQ_clean', 'submitters': [{'name': 'Dalar Nazarian Jeff Camp and David Sholl', 'email': 'dalar@gatech.edu jcamp6@gatech.edu'}], '_method': 'VASP DFT with PBE;DDEC'}
data_LaH6(C2O3)3
_symmetry_space_group_name_H-M   'P 1'
_cell_length_a   6.19449993
_cell_length_b   7.77250041
_cell_length_c   13.35100000
_cell_angle_alpha   104.87000279
_cell_angle_beta   95.28099838
_cell_angle_gamma   90.01900229
_symmetry_Int_Tables_number   1
_chemical_formula_structural   LaH6(C2O3)3
_chemical_formula_sum   'La2 H12 C12 O18'
_cell_volume   618.451275217
_cell_formula_units_Z   2
loop_
 _symmetry_equiv_pos_site_id
 _symmetry_equiv_pos_as_xyz
  1  'x, y, z'
loop_
 _atom_site_label
 _atom_site_fract_x
 _atom_site_fract_y
 _atom_site_fract_z
 _atom_site_charge
 La 0.589028 0.04127 0.476863   2.13563
 La 0.796878 0.693934 0.825576   2.136325
 H 0.126982 0.554296 0.573879   0.123692
 H 0.999694 0.588062 0.406972   0.121476
 H 0.261076 0.121546 0.728117   0.123351
 H 0.39458 0.298632 0.895562   0.123137
 H 0.309892 0.814742 0.102197   0.095454
 H 0.01844 0.796914 0.207768   0.090981
 H 0.870196 0.85618 0.655501   0.355626
 H 0.674256 0.671836 0.37068   0.366382
 H 0.518722 0.352978 0.647313   0.356625
 H 0.731928 0.405104 0.925888   0.37437
 H 0.490318 0.495204 0.110645   0.365481
 H 0.994656 0.438392 0.174716   0.372298
 C 0.790752 0.47951 0.566911   0.698385
 C 0.969868 0.619856 0.571042   0.058038
 C 0.943572 0.689856 0.472559   0.02959
 C 0.082646 0.860228 0.484869   0.696728
 C 0.597462 0.052716 0.734614   0.699719
 C 0.418444 0.189424 0.731056   0.055126
 C 0.447384 0.344892 0.830299   0.029502
 C 0.306544 0.504796 0.82021   0.696836
 C 0.461518 0.749028 0.239338   0.682279
 C 0.313206 0.701634 0.137844   0.036138
 C 0.078602 0.668914 0.163314   0.031197
 C 0.935762 0.607446 0.060506   0.68259
 O 0.75816 0.347188 0.489507   -0.663278
 O 0.68489 0.505728 0.647885   -0.67448
 O 0.972514 0.758718 0.666109   -0.622996
 O 0.720522 0.724772 0.449455   -0.603175
 O 0.982542 0.999456 0.475334   -0.705848
 O 0.285694 0.851176 0.502027   -0.666114
 O 0.70374 0.008266 0.653765   -0.672041
 O 0.630236 0.98869 0.812043   -0.666308
 O 0.416004 0.246144 0.636597   -0.620061
 O 0.670842 0.399526 0.850494   -0.603465
 O 0.405764 0.650614 0.824438   -0.700414
 O 0.10305 0.48174 0.808158   -0.666251
 O 0.450164 0.906178 0.30034   -0.757822
 O 0.583682 0.62855 0.257135   -0.546238
 O 0.38781 0.548962 0.06747   -0.532353
 O 0.074968 0.541 0.222012   -0.52656
 O 0.908014 0.719414 0.004451   -0.755683
 O 0.857842 0.450904 0.036966   -0.553871
