#{'_ref': 'TBD', '_srcid': 'CAKYAQ_clean', 'submitters': [{'name': 'Dalar Nazarian Jeff Camp and David Sholl', 'email': 'dalar@gatech.edu jcamp6@gatech.edu'}], '_method': 'VASP DFT with PBE;DDEC'}
data_Zn2H5C14(NO4)2
_symmetry_space_group_name_H-M   'P 1'
_cell_length_a   14.63700047
_cell_length_b   15.14600014
_cell_length_c   16.08200000
_cell_angle_alpha   93.92799973
_cell_angle_beta   90.10100064
_cell_angle_gamma   89.97499985
_symmetry_Int_Tables_number   1
_chemical_formula_structural   Zn2H5C14(NO4)2
_chemical_formula_sum   'Zn16 H40 C112 N16 O64'
_cell_volume   3556.87016674
_cell_formula_units_Z   8
loop_
 _symmetry_equiv_pos_site_id
 _symmetry_equiv_pos_as_xyz
  1  'x, y, z'
loop_
  _atom_site_label
 _atom_site_fract_x
 _atom_site_fract_y
 _atom_site_fract_z
 _atom_site_charge
 Zn 0.382233 0.155435 0.035552   0.979331
 Zn 0.155916 0.621591 0.302083   1.009436
 Zn 0.128975 0.641422 0.044965   0.973249
 Zn 0.652779 0.873662 0.691375   1.023031
 Zn 0.882691 0.840148 0.459311   0.980321
 Zn 0.648964 0.37453 0.198138   1.004088
 Zn 0.624885 0.351698 0.451875   0.972374
 Zn 0.148401 0.125657 0.805122   1.021304
 Zn 0.621592 0.844048 0.961411   0.980535
 Zn 0.848025 0.374775 0.701191   1.007798
 Zn 0.874763 0.355363 0.95743   0.960156
 Zn 0.347552 0.12291 0.305432   1.023266
 Zn 0.117973 0.156189 0.541012   0.980052
 Zn 0.351623 0.622164 0.798807   1.006951
 Zn 0.375499 0.644916 0.544903   0.972927
 Zn 0.855051 0.870344 0.19719   1.018215
 H 0.737379 0.087723 0.873574   0.13649
 H 0.213261 0.375199 0.152402   0.133133
 H 0.751528 0.714421 0.134176   0.108953
 H 0.596124 0.654331 0.145602   0.151842
 H 0.527192 0.891222 0.299944   0.154917
 H 0.684332 0.941766 0.28129   0.103394
 H 0.329224 0.541643 0.226467   0.106572
 H 0.483511 0.59499 0.197253   0.140045
 H 0.392281 0.858472 0.282896   0.13924
 H 0.243678 0.79345 0.313571   0.10887
 H 0.235069 0.912666 0.626251   0.13633
 H 0.709702 0.61943 0.344587   0.130789
 H 0.244226 0.277855 0.370037   0.108822
 H 0.08938 0.339687 0.357047   0.153511
 H 0.024227 0.11152 0.189575   0.157146
 H 0.180696 0.058741 0.210154   0.105908
 H 0.82533 0.457059 0.267974   0.104518
 H 0.980636 0.403995 0.295475   0.140542
 H 0.887023 0.139099 0.217921   0.13827
 H 0.736982 0.203471 0.189401   0.108021
 H 0.265663 0.909419 0.123011   0.135886
 H 0.791383 0.623182 0.848088   0.132339
 H 0.249887 0.284109 0.86324   0.109215
 H 0.404668 0.345153 0.850452   0.152291
 H 0.474598 0.107273 0.69792   0.155311
 H 0.318024 0.055853 0.717722   0.103832
 H 0.673388 0.456437 0.773316   0.106233
 H 0.518158 0.403868 0.800115   0.140413
 H 0.609054 0.140083 0.715054   0.139075
 H 0.75874 0.204286 0.687145   0.108496
 H 0.765399 0.085589 0.374728   0.136045
 H 0.29111 0.376391 0.652567   0.130831
 H 0.756277 0.718014 0.628425   0.10887
 H 0.911065 0.656391 0.641987   0.153537
 H 0.975612 0.885178 0.80891   0.157592
 H 0.819294 0.937756 0.787716   0.104579
 H 0.175526 0.539825 0.729733   0.105087
 H 0.020062 0.59268 0.702652   0.14112
 H 0.112927 0.857388 0.781835   0.137715
 H 0.263223 0.793187 0.80972   0.108311
 C 0.422698 0.023803 0.903434   0.564784
 C 0.512476 0.07187 0.922341   0.088059
 C 0.595632 0.049935 0.883199   -0.110094
 C 0.606693 0.972119 0.821549   0.664981
 C 0.671872 0.10256 0.903575   -0.028103
 C 0.665899 0.174464 0.963061   -0.039252
 C 0.75074 0.229928 0.98053   0.633939
 C 0.581139 0.189717 0.002137   0.112166
 C 0.561719 0.257527 0.07327   0.616475
 C 0.916984 0.481646 0.093457   0.569787
 C 0.001907 0.424086 0.08073   0.087225
 C 0.082352 0.434245 0.127832   -0.104489
 C 0.100096 0.512447 0.18735   0.663046
 C 0.150811 0.370308 0.115273   -0.040356
 C 0.14129 0.300263 0.054187   -0.052814
 C 0.212568 0.227563 0.04955   0.633186
 C 0.062185 0.299332 0.004663   0.131389
 C 0.044984 0.239525 0.926963   0.632106
 C 0.69967 0.750816 0.170755   0.155922
 C 0.611946 0.718123 0.177489   -0.198441
 C 0.546157 0.767131 0.224776   0.108196
 C 0.573356 0.849353 0.261928   -0.178677
 C 0.662332 0.878327 0.252523   0.198136
 C 0.345605 0.611579 0.236903   0.166945
 C 0.432213 0.642565 0.220146   -0.190001
 C 0.45296 0.732552 0.237203   0.113387
 C 0.382632 0.787749 0.269454   -0.175054
 C 0.297907 0.752201 0.285704   0.178606
 C 0.91953 0.970746 0.593386   0.568333
 C 0.010452 0.924744 0.57481   0.089005
 C 0.092794 0.948081 0.615068   -0.110374
 C 0.102396 0.025215 0.677739   0.665955
 C 0.170134 0.896832 0.595419   -0.028315
 C 0.165952 0.824798 0.535969   -0.038074
 C 0.251845 0.770575 0.520261   0.633721
 C 0.08199 0.808122 0.495617   0.112977
 C 0.06446 0.739467 0.424516   0.618967
 C 0.412313 0.519269 0.407055   0.570179
 C 0.499123 0.574259 0.419507   0.09799
 C 0.578635 0.562448 0.371508   -0.11147
 C 0.59441 0.484192 0.311673   0.664382
 C 0.648173 0.625463 0.382705   -0.031843
 C 0.640798 0.696117 0.443381   -0.052743
 C 0.71272 0.768181 0.445801   0.634322
 C 0.562892 0.698272 0.494278   0.122787
 C 0.548269 0.758777 0.571934   0.629273
 C 0.193349 0.243777 0.330337   0.158702
 C 0.10611 0.277453 0.322677   -0.201119
 C 0.041548 0.230948 0.271692   0.108897
 C 0.069485 0.150695 0.231078   -0.181897
 C 0.15795 0.120586 0.241583   0.197765
 C 0.841315 0.386871 0.259109   0.166816
 C 0.928449 0.356215 0.274805   -0.191797
 C 0.948442 0.265826 0.259588   0.114732
 C 0.877371 0.210034 0.229951   -0.174789
 C 0.792121 0.245286 0.21491   0.180369
 C 0.579577 0.975064 0.093156   0.564529
 C 0.490211 0.926533 0.073819   0.088791
 C 0.406996 0.948277 0.112925   -0.108994
 C 0.395611 0.026066 0.174589   0.666914
 C 0.331181 0.895025 0.09287   -0.028675
 C 0.33754 0.822928 0.033606   -0.0399
 C 0.252719 0.767127 0.017177   0.635134
 C 0.422218 0.808092 0.994223   0.112077
 C 0.442013 0.740314 0.922984   0.619646
 C 0.086949 0.515928 0.907981   0.572323
 C 0.002113 0.573563 0.92072   0.095678
 C 0.921792 0.563534 0.873403   -0.110847
 C 0.903998 0.485092 0.814166   0.663208
 C 0.853609 0.627838 0.885542   -0.032704
 C 0.863146 0.69799 0.946553   -0.055132
 C 0.792666 0.771548 0.950206   0.636159
 C 0.941926 0.698478 0.99656   0.124128
 C 0.958702 0.757816 0.074653   0.631604
 C 0.301834 0.247664 0.82681   0.156922
 C 0.389228 0.2809 0.819327   -0.198474
 C 0.455219 0.231729 0.772459   0.108398
 C 0.428332 0.149195 0.735772   -0.179495
 C 0.339667 0.119683 0.745867   0.197807
 C 0.656679 0.386604 0.762513   0.167825
 C 0.569548 0.356069 0.777897   -0.189912
 C 0.54855 0.266175 0.76054   0.113776
 C 0.618981 0.210691 0.729007   -0.175022
 C 0.704274 0.245773 0.714249   0.177744
 C 0.080685 0.026071 0.406731   0.567936
 C 0.989912 0.072125 0.425969   0.088485
 C 0.907374 0.049114 0.386015   -0.108177
 C 0.89842 0.972179 0.323142   0.664618
 C 0.83042 0.100959 0.405595   -0.028563
 C 0.835098 0.173149 0.464953   -0.03919
 C 0.749513 0.228181 0.479895   0.632544
 C 0.919164 0.189112 0.505403   0.112312
 C 0.937806 0.257243 0.576783   0.619675
 C 0.587721 0.47805 0.589104   0.571504
 C 0.50132 0.422337 0.577245   0.098827
 C 0.421925 0.433856 0.625465   -0.112837
 C 0.405858 0.512162 0.685171   0.665117
 C 0.352658 0.370559 0.614462   -0.031427
 C 0.360313 0.299749 0.553997   -0.05567
 C 0.288845 0.227387 0.552097   0.634849
 C 0.438107 0.297693 0.502989   0.123732
 C 0.452951 0.236996 0.425456   0.63286
 C 0.806999 0.752303 0.668136   0.159043
 C 0.894237 0.718725 0.676132   -0.202592
 C 0.958695 0.765474 0.727043   0.109667
 C 0.930567 0.845808 0.767373   -0.181993
 C 0.842113 0.875823 0.756513   0.197943
 C 0.15932 0.609928 0.739017   0.166159
 C 0.072126 0.64049 0.723513   -0.192006
 C 0.051869 0.730769 0.739229   0.113861
 C 0.12278 0.786549 0.769254   -0.173412
 C 0.208166 0.75142 0.784009   0.180869
 N 0.50836 0.139585 0.980039   -0.323766
 N 0.0 0.358563 0.020982   -0.30477
 N 0.725128 0.829927 0.208357   -0.374954
 N 0.279504 0.665146 0.270333   -0.362214
 N 0.008158 0.857205 0.516765   -0.32575
 N 0.495036 0.639956 0.47927   -0.310014
 N 0.219402 0.16617 0.29009   -0.377847
 N 0.77412 0.332585 0.228805   -0.362785
 N 0.494741 0.858764 0.016199   -0.326229
 N 0.008467 0.638979 0.980576   -0.311706
 N 0.276902 0.167882 0.790286   -0.376226
 N 0.723091 0.332642 0.730303   -0.361551
 N 0.992594 0.139561 0.484012   -0.324843
 N 0.505607 0.356456 0.51767   -0.311193
 N 0.780813 0.83008 0.707977   -0.378456
 N 0.226396 0.66423 0.769568   -0.362599
 O 0.42319 0.963188 0.847015   -0.537388
 O 0.354206 0.052078 0.947972   -0.60177
 O 0.621526 0.894766 0.844084   -0.572173
 O 0.613106 0.988027 0.744007   -0.55663
 O 0.807977 0.207494 0.031808   -0.5537
 O 0.757688 0.295871 0.933521   -0.587195
 O 0.632657 0.30387 0.097036   -0.592119
 O 0.483961 0.262732 0.10397   -0.533279
 O 0.851208 0.463117 0.041758   -0.599758
 O 0.917972 0.539347 0.152482   -0.542379
 O 0.109246 0.500599 0.265285   -0.560779
 O 0.117498 0.588323 0.161584   -0.571713
 O 0.19092 0.154063 0.072655   -0.545999
 O 0.293232 0.251779 0.026962   -0.596936
 O 0.969669 0.240992 0.891638   -0.532445
 O 0.116628 0.194237 0.903416   -0.602259
 O 0.918593 0.030893 0.65023   -0.538974
 O 0.851727 0.941322 0.548329   -0.603449
 O 0.116506 0.103421 0.656504   -0.578437
 O 0.10925 0.008843 0.754969   -0.551184
 O 0.308525 0.79223 0.468371   -0.553887
 O 0.259964 0.706569 0.569446   -0.589496
 O 0.136024 0.693182 0.402512   -0.594472
 O 0.98722 0.733649 0.392537   -0.535565
 O 0.347669 0.539198 0.459389   -0.604203
 O 0.410643 0.46251 0.347273   -0.545199
 O 0.60478 0.496604 0.234017   -0.559735
 O 0.609253 0.407281 0.336513   -0.571432
 O 0.691242 0.840974 0.420878   -0.544622
 O 0.79352 0.744109 0.46851   -0.596935
 O 0.474109 0.757917 0.609091   -0.532685
 O 0.620664 0.804089 0.593457   -0.59974
 O 0.578319 0.035209 0.150009   -0.53699
 O 0.648439 0.947791 0.048584   -0.600028
 O 0.382216 0.103769 0.15251   -0.572506
 O 0.387382 0.009461 0.251877   -0.559577
 O 0.195541 0.788442 0.965391   -0.554135
 O 0.245761 0.702685 0.065971   -0.590946
 O 0.371517 0.693049 0.899502   -0.59748
 O 0.519773 0.736194 0.892245   -0.533743
 O 0.15239 0.533586 0.960251   -0.604361
 O 0.086154 0.45898 0.848291   -0.545924
 O 0.894584 0.4964 0.736162   -0.560614
 O 0.88671 0.409289 0.84029   -0.570252
 O 0.816123 0.844598 0.927295   -0.543927
 O 0.71117 0.748371 0.97162   -0.599499
 O 0.033576 0.755621 0.110705   -0.534664
 O 0.887165 0.803481 0.097808   -0.600634
 O 0.081304 0.966481 0.349352   -0.538832
 O 0.148617 0.054994 0.451785   -0.601982
 O 0.886195 0.893306 0.343725   -0.579242
 O 0.890875 0.988873 0.246137   -0.548742
 O 0.692128 0.207424 0.531556   -0.552684
 O 0.742138 0.291708 0.430066   -0.589082
 O 0.866742 0.303342 0.600325   -0.593816
 O 0.015619 0.262716 0.607683   -0.535427
 O 0.651674 0.45934 0.535768   -0.603609
 O 0.589464 0.53435 0.649277   -0.546726
 O 0.395552 0.499929 0.762884   -0.560959
 O 0.390678 0.588893 0.660103   -0.572378
 O 0.311469 0.154367 0.575743   -0.543139
 O 0.20744 0.251711 0.531286   -0.598593
 O 0.527422 0.237519 0.388728   -0.534606
 O 0.38049 0.192075 0.403451   -0.602035
