#{'_ref': 'TBD', '_srcid': 'CAKYAQ_clean', 'submitters': [{'name': 'Dalar Nazarian Jeff Camp and David Sholl', 'email': 'dalar@gatech.edu jcamp6@gatech.edu'}], '_method': 'VASP DFT with PBE;DDEC'}
data_CuH(C2N3)3
_symmetry_space_group_name_H-M   'P 1'
_cell_length_a   7.52500042
_cell_length_b   12.56099980
_cell_length_c   12.56700000
_cell_angle_alpha   85.09200174
_cell_angle_beta   82.73200304
_cell_angle_gamma   82.58499814
_symmetry_Int_Tables_number   1
_chemical_formula_structural   CuH(C2N3)3
_chemical_formula_sum   'Cu4 H4 C24 N36'
_cell_volume   1165.55691583
_cell_formula_units_Z   4
loop_
 _symmetry_equiv_pos_site_id
 _symmetry_equiv_pos_as_xyz
  1  'x, y, z'
loop_
 _atom_site_label
 _atom_site_fract_x
 _atom_site_fract_y
 _atom_site_fract_z
 _atom_site_charge
 Cu 0.90615 0.356205 0.940568   1.00778
 Cu 0.406584 0.940535 0.356216   1.007907
 Cu 0.593354 0.059489 0.643766   1.007942
 Cu 0.09416 0.643778 0.059382   1.007215
 H 0.447666 0.416863 0.467999   0.30724
 H 0.94737 0.467871 0.416865   0.307622
 H 0.052668 0.532108 0.583106   0.307563
 H 0.55243 0.583171 0.532035   0.307112
 C 0.436052 0.529252 0.33404   0.676107
 C 0.361948 0.35035 0.337744   0.690766
 C 0.32454 0.469773 0.192891   0.739001
 C 0.494122 0.701427 0.350383   0.644072
 C 0.317238 0.170613 0.362509   0.640933
 C 0.2029 0.424126 0.044024   0.588518
 C 0.935354 0.334131 0.52949   0.675858
 C 0.861646 0.337557 0.350492   0.691213
 C 0.823836 0.192958 0.470111   0.740069
 C 0.993518 0.350576 0.701658   0.643878
 C 0.817568 0.362139 0.170591   0.640442
 C 0.702612 0.044028 0.424442   0.588179
 C 0.064676 0.665841 0.470466   0.675782
 C 0.138432 0.662416 0.649458   0.691092
 C 0.176146 0.80703 0.529845   0.739432
 C 0.006484 0.649455 0.298416   0.643916
 C 0.182638 0.637796 0.829344   0.641178
 C 0.297338 0.955977 0.575508   0.587782
 C 0.564052 0.470754 0.665973   0.676204
 C 0.638126 0.649659 0.66231   0.690997
 C 0.675602 0.5302 0.807133   0.739389
 C 0.505878 0.298601 0.649609   0.644383
 C 0.68278 0.829416 0.637551   0.640847
 C 0.79714 0.575815 0.956047   0.588083
 N 0.420058 0.430549 0.38814   -0.482603
 N 0.315958 0.368386 0.238229   -0.622215
 N 0.388174 0.550608 0.235421   -0.610142
 N 0.500148 0.601784 0.388666   -0.589431
 N 0.49287 0.794071 0.325457   -0.626907
 N 0.34618 0.258063 0.399082   -0.545419
 N 0.288736 0.084705 0.340262   -0.647445
 N 0.258938 0.496585 0.095946   -0.593146
 N 0.148518 0.370078 0.985768   -0.577094
 N 0.919476 0.388096 0.430709   -0.48265
 N 0.81557 0.238099 0.368644   -0.622818
 N 0.887394 0.235576 0.550937   -0.609736
 N 0.999548 0.388798 0.602048   -0.58995
 N 0.992128 0.325627 0.79426   -0.626419
 N 0.846292 0.398722 0.258068   -0.545033
 N 0.789218 0.339958 0.084638   -0.647349
 N 0.758248 0.096089 0.496943   -0.594033
 N 0.648658 0.985668 0.370353   -0.577042
 N 0.080532 0.61189 0.569255   -0.482453
 N 0.18447 0.761883 0.631305   -0.622567
 N 0.112562 0.764414 0.44903   -0.609662
 N 0.000508000000004 0.611208 0.398015   -0.589604
 N 0.007818 0.674419 0.20582   -0.626278
 N 0.153804 0.601245 0.741875   -0.545593
 N 0.211066 0.65994 0.915293   -0.647955
 N 0.241678 0.903918 0.503015   -0.593368
 N 0.35131 0.014338 0.629588   -0.576986
 N 0.580064 0.569462 0.611886   -0.482425
 N 0.684154 0.631599 0.761815   -0.622369
 N 0.611984 0.449374 0.764577   -0.610088
 N 0.499922 0.398245 0.611336   -0.58964
 N 0.507072 0.205958 0.674517   -0.627266
 N 0.653914 0.74195 0.600982   -0.545402
 N 0.711226 0.915339 0.659793   -0.647382
 N 0.741186 0.503361 0.904079   -0.593339
 N 0.851398 0.629873 0.014346   -0.576693
