#{'_ref': 'TBD', '_srcid': 'CAKYAQ_clean', 'submitters': [{'name': 'Dalar Nazarian Jeff Camp and David Sholl', 'email': 'dalar@gatech.edu jcamp6@gatech.edu'}], '_method': 'VASP DFT with PBE;DDEC'}
data_CaH2(C3O2)2
_symmetry_space_group_name_H-M   'P 1'
_cell_length_a   10.06300030
_cell_length_b   17.54746751
_cell_length_c   20.13499974
_cell_angle_alpha   76.88765648
_cell_angle_beta   85.07799845
_cell_angle_gamma   76.90584846
_symmetry_Int_Tables_number   1
_chemical_formula_structural   CaH2(C3O2)2
_chemical_formula_sum   'Ca12 H24 C72 O48'
_cell_volume   3370.48781484
_cell_formula_units_Z   12
loop_
 _symmetry_equiv_pos_site_id
 _symmetry_equiv_pos_as_xyz
  1  'x, y, z'
loop_
 _atom_site_label
 _atom_site_fract_x
 _atom_site_fract_y
 _atom_site_fract_z
 _atom_site_charge
 Ca 0.510573 0.956519 0.593472   1.518683
 Ca 0.510588 0.956518 0.093459   1.524309
 Ca 0.813139 0.543819 0.745481   1.518336
 Ca 0.81316 0.54382 0.24547   1.518986
 Ca 0.489413 0.043505 0.906526   1.513572
 Ca 0.489429 0.043505 0.406511   1.519232
 Ca 0.186836 0.4562 0.754503   1.518293
 Ca 0.186859 0.456201 0.254493   1.518279
 Ca 0.578264 0.750284 0.712024   1.655743
 Ca 0.578281 0.750285 0.212016   1.655621
 Ca 0.421712 0.249732 0.787958   1.657305
 Ca 0.421732 0.249732 0.287948   1.657311
 H 0.870318 0.723006 0.684406   0.063731
 H 0.870335 0.723007 0.184396   0.061576
 H 0.015234 0.941814 0.613216   0.131274
 H 0.015249 0.941815 0.113208   0.130955
 H 0.296536 0.717306 0.683632   0.078968
 H 0.296552 0.717308 0.183621   0.076906
 H 0.628115 0.776781 0.565594   0.062172
 H 0.628129 0.776783 0.065581   0.067136
 H 0.773469 0.557965 0.493566   0.131052
 H 0.773477 0.557965 0.0   0.142132
 H 0.632914 0.782196 0.852548   0.076664
 H 0.63294 0.7822 0.352535   0.078424
 H 0.12967 0.277012 0.815574   0.063642
 H 0.129689 0.277011 0.315563   0.063305
 H 0.984751 0.058205 0.886773   0.131647
 H 0.984767 0.058207 0.386766   0.131488
 H 0.703451 0.282709 0.816342   0.079032
 H 0.703471 0.282711 0.316332   0.078678
 H 0.371856 0.223234 0.9344   0.061257
 H 0.371873 0.223235 0.434388   0.062286
 H 0.226521 0.442057 0.006418   0.130344
 H 0.226528 0.442056 0.506408   0.131341
 H 0.367058 0.217826 0.647444   0.07685
 H 0.367083 0.217829 0.147431   0.077328
 C 0.953074 0.754972 0.674716   0.023476
 C 0.953089 0.754973 0.174712   0.021356
 C 0.926414 0.837812 0.648653   -0.158524
 C 0.92643 0.837812 0.148639   -0.157375
 C 0.168713 0.834963 0.648551   -0.159048
 C 0.168731 0.834963 0.148537   -0.158246
 C 0.783203 0.883539 0.635267   0.739499
 C 0.783219 0.883541 0.135262   0.738379
 C 0.03492 0.877632 0.634585   0.014097
 C 0.034934 0.877634 0.134582   0.01383
 C 0.284462 0.877566 0.635865   0.749144
 C 0.284476 0.877566 0.135861   0.748432
 C 0.117124 0.62271 0.713553   0.73612
 C 0.117144 0.622712 0.213548   0.737595
 C 0.193353 0.752203 0.674199   0.015383
 C 0.193368 0.752206 0.174194   0.014742
 C 0.086369 0.711537 0.687019   -0.147905
 C 0.086389 0.711537 0.187004   -0.151036
 C 0.648487 0.744797 0.524262   0.02606
 C 0.648489 0.744797 0.02425   0.035832
 C 0.701196 0.662016 0.537735   -0.158938
 C 0.701209 0.662017 0.037723   -0.107157
 C 0.703094 0.664658 0.91662   -0.204648
 C 0.703109 0.664659 0.416607   -0.159504
 C 0.727928 0.616496 0.609387   0.740664
 C 0.72794 0.616496 0.109376   0.739507
 C 0.730314 0.622102 0.483583   0.015509
 C 0.730315 0.622101 0.0   0.009474
 C 0.7298 0.622108 0.858742   0.759187
 C 0.729829 0.622109 0.35873   0.751324
 C 0.571253 0.876925 0.941947   0.682968
 C 0.571264 0.876926 0.441935   0.738776
 C 0.65124 0.74736 0.90418   0.009075
 C 0.651263 0.747363 0.404167   0.01617
 C 0.624491 0.788119 0.957563   -0.135786
 C 0.624501 0.788119 0.457551   -0.150728
 C 0.046914 0.245046 0.825261   0.023708
 C 0.046934 0.245044 0.325241   0.023649
 C 0.073572 0.162206 0.851334   -0.157889
 C 0.073589 0.162209 0.351334   -0.157949
 C 0.831275 0.165055 0.851432   -0.158492
 C 0.831289 0.165059 0.351434   -0.158296
 C 0.216784 0.116476 0.86472   0.740298
 C 0.216802 0.116474 0.364706   0.739951
 C 0.965068 0.122386 0.865395   0.014301
 C 0.965087 0.122385 0.365378   0.014145
 C 0.715527 0.122461 0.864113   0.75051
 C 0.715543 0.122461 0.364106   0.749826
 C 0.882856 0.377308 0.786421   0.736453
 C 0.882879 0.377307 0.286402   0.736612
 C 0.806635 0.247813 0.825774   0.015477
 C 0.806656 0.247812 0.325755   0.015052
 C 0.913617 0.288481 0.81296   -0.148166
 C 0.913632 0.288484 0.312959   -0.148833
 C 0.351471 0.255219 0.975732   0.026026
 C 0.351506 0.255222 0.475718   0.026619
 C 0.298808 0.338004 0.962253   -0.159758
 C 0.29879 0.338002 0.462243   -0.158101
 C 0.296888 0.335364 0.58337   -0.159704
 C 0.296931 0.335369 0.083355   -0.160447
 C 0.272027 0.383513 0.890601   0.741343
 C 0.27206 0.383518 0.39059   0.740186
 C 0.269653 0.377917 0.016406   0.014354
 C 0.269685 0.377919 0.516393   0.015356
 C 0.27018 0.377918 0.641245   0.751259
 C 0.270179 0.377915 0.141236   0.752111
 C 0.428736 0.123098 0.558047   0.740126
 C 0.428719 0.123097 0.058037   0.737506
 C 0.348736 0.252662 0.595812   0.015878
 C 0.348728 0.252662 0.095801   0.015706
 C 0.375491 0.211903 0.542429   -0.15122
 C 0.375529 0.211907 0.042416   -0.149036
 O 0.683882 0.847494 0.66109   -0.878873
 O 0.683898 0.847494 0.16108   -0.876448
 O 0.757831 0.953357 0.600069   -0.604626
 O 0.757843 0.953357 0.100058   -0.602362
 O 0.402447 0.838155 0.660505   -0.886271
 O 0.402464 0.838154 0.160497   -0.885367
 O 0.269293 0.948331 0.602578   -0.613473
 O 0.269308 0.94833 0.102571   -0.611904
 O 0.239781 0.585713 0.722402   -0.658921
 O 0.2398 0.585716 0.222393   -0.660346
 O 0.017068 0.585874 0.726649   -0.791981
 O 0.017088 0.585874 0.22664   -0.7945
 O 0.677337 0.652941 0.658906   -0.876386
 O 0.677354 0.652944 0.158894   -0.876671
 O 0.797616 0.546504 0.622215   -0.60544
 O 0.797631 0.546505 0.122203   -0.606688
 O 0.682098 0.66177 0.799477   -0.887906
 O 0.682119 0.661769 0.299466   -0.887299
 O 0.795862 0.551244 0.86649   -0.6148
 O 0.79589 0.551246 0.366478   -0.614525
 O 0.552932 0.913656 0.880598   -0.589764
 O 0.552954 0.913658 0.380585   -0.659624
 O 0.545803 0.914051 0.491743   -0.793308
 O 0.545816 0.914052 0.0   -0.835532
 O 0.316106 0.15252 0.838897   -0.87733
 O 0.316125 0.152521 0.33889   -0.877065
 O 0.242156 0.04666 0.89992   -0.605613
 O 0.242171 0.046661 0.399913   -0.605135
 O 0.597544 0.161872 0.839472   -0.885535
 O 0.597564 0.16187 0.339461   -0.885389
 O 0.730686 0.051704 0.897417   -0.614836
 O 0.7307 0.051704 0.397411   -0.614355
 O 0.760198 0.414304 0.777582   -0.658934
 O 0.760218 0.414306 0.277574   -0.659629
 O 0.98291 0.414146 0.773317   -0.792417
 O 0.982931 0.414147 0.273306   -0.792727
 O 0.322596 0.347058 0.841086   -0.877673
 O 0.322625 0.347061 0.341074   -0.876824
 O 0.202388 0.453516 0.877769   -0.605896
 O 0.202398 0.453516 0.377758   -0.604722
 O 0.317888 0.33826 0.70051   -0.887961
 O 0.317907 0.338259 0.200498   -0.887932
 O 0.204115 0.448781 0.633494   -0.613686
 O 0.204145 0.448785 0.133483   -0.615656
 O 0.447047 0.086369 0.619397   -0.663332
 O 0.447063 0.086371 0.119386   -0.661579
 O 0.454187 0.085971 0.008253   -0.790539
 O 0.454194 0.085972 0.50824   -0.792347
