#{'_ref': 'TBD', '_srcid': 'CAKYAQ_clean', 'submitters': [{'name': 'Dalar Nazarian Jeff Camp and David Sholl', 'email': 'dalar@gatech.edu jcamp6@gatech.edu'}], '_method': 'VASP DFT with PBE;DDEC'}
data_Zn7H16C32(N9O8)2
_symmetry_space_group_name_H-M   'P 1'
_cell_length_a   14.12899973
_cell_length_b   14.64799975
_cell_length_c   16.74800000
_cell_angle_alpha   74.59399911
_cell_angle_beta   65.07200035
_cell_angle_gamma   61.24400078
_symmetry_Int_Tables_number   1
_chemical_formula_structural   Zn7H16C32(N9O8)2
_chemical_formula_sum   'Zn14 H32 C64 N36 O32'
_cell_volume   2746.99941432
_cell_formula_units_Z   2
loop_
 _symmetry_equiv_pos_site_id
 _symmetry_equiv_pos_as_xyz
  1  'x, y, z'
loop_
 _atom_site_type_symbol
 _atom_site_fract_x
 _atom_site_fract_y
 _atom_site_fract_z
 _atom_site_charge
 Zn 0.225822 0.962037 0.402633   0.867474
 Zn 0.599242 0.830744 0.573416   1.003829
 Zn 0.801241 0.444325 0.370452   0.832181
 Zn 0.590448 0.538822 0.097191   0.910053
 Zn 0.002305 0.670254 0.926971   0.975741
 Zn 0.615338 0.056777 0.129779   0.834109
 Zn 0.775509 0.038918 0.597393   0.897667
 Zn 0.40202 0.170046 0.426536   1.00059
 Zn 0.199853 0.556578 0.629619   0.840402
 Zn 0.410768 0.462027 0.90278   0.904441
 Zn 0.0 0.330578 0.073053   0.906273
 Zn 0.38597 0.943971 0.870192   0.88824
 Zn 0.500401 0.500492 0.499994   0.523192
 Zn 0.500519 0.000410000000002 6.9999999965e-06   0.508901
 H 0.459172 0.699759 0.587797   0.119321
 H 0.43566 0.554698 0.310501   0.137916
 H 0.783747 0.496746 0.173484   0.073877
 H 0.083201 0.819605 0.550967   0.115869
 H 0.206768 0.337581 0.576968   0.126065
 H 0.219017 0.829601 0.797028   0.133734
 H 0.092043 0.052793 0.551967   0.109866
 H 0.434109 0.740823 0.402868   0.110176
 H 0.745844 0.800421 0.913072   0.110555
 H 0.29972 0.947129 0.189132   0.171756
 H 0.454016 0.002956 0.32666   0.086176
 H 0.45461 0.680542 0.0   0.015178
 H 0.121648 0.162833 0.922526   0.127144
 H 0.845526 0.671084 0.702981   0.111199
 H 0.696701 0.447426 0.94778   0.094565
 H 0.576472 0.760522 0.097578   0.092803
 H 0.541877 0.301074 0.412298   0.113205
 H 0.565512 0.446178 0.689395   0.134431
 H 0.217513 0.503878 0.826574   0.099211
 H 0.917964 0.18139 0.449158   0.117948
 H 0.794174 0.663407 0.422943   0.122559
 H 0.782551 0.170908 0.202816   0.128623
 H 0.909433 0.948061 0.448014   0.117039
 H 0.567052 0.25996 0.597078   0.11136
 H 0.255435 0.200242 0.087007   0.118911
 H 0.701804 0.053341 0.810945   0.130944
 H 0.547557 0.997589 0.673327   0.102889
 H 0.546728 0.320189 0.051605   0.118669
 H 0.879703 0.838127 0.077344   0.124088
 H 0.155841 0.329652 0.296984   0.131232
 H 0.304581 0.553301 0.052132   0.119026
 H 0.424995 0.240131 0.902255   0.106916
 C 0.545625 0.670064 0.539804   0.203009
 C 0.349179 0.931617 0.707305   0.730757
 C 0.224439 0.990218 0.608309   -0.074519
 C 0.93917 0.986494 0.660431   0.623976
 C 0.524843 0.536381 0.296546   0.20787
 C 0.702002 0.50698 0.225431   0.229421
 C 0.176045 0.775263 0.522581   0.242077
 C 0.05523 0.951494 0.667016   -0.018167
 C 0.284853 0.349656 0.543248   0.221326
 C 0.288713 0.039296 0.527589   0.67276
 C 0.041194 0.811857 0.792657   1.035223
 C 0.192624 0.878794 0.74207   -0.035434
 C 0.096824 0.882298 0.733104   -0.229531
 C 0.121909 0.001377 0.604966   -0.137435
 C 0.354511 0.735783 0.448016   0.170571
 C 0.255981 0.934375 0.683124   -0.128424
 C 0.754676 0.830447 0.96088   0.174032
 C 0.98794 0.568897 0.792547   0.724067
 C 0.822839 0.510144 0.891513   -0.164456
 C 0.585805 0.514079 0.839388   0.637957
 C 0.356902 0.964974 0.203254   0.014135
 C 0.434165 0.0 0.2746   0.334149
 C 0.474213 0.725173 0.0   0.440843
 C 0.673519 0.549047 0.832889   0.020628
 C 0.177978 0.151002 0.956254   0.221182
 C 0.855397 0.461205 0.0   0.650123
 C 0.645336 0.689266 0.707649   0.637574
 C 0.813367 0.621787 0.757876   -0.031903
 C 0.71198 0.618443 0.766941   -0.138225
 C 0.728085 0.499 0.894853   -0.156315
 C 0.537485 0.765261 0.052156   0.081037
 C 0.873353 0.566089 0.81675   -0.142371
 C 0.455401 0.330801 0.460253   0.197443
 C 0.65228 0.069045 0.292676   0.722282
 C 0.777102 0.010456 0.391624   -0.05225
 C 0.062209 0.014487 0.339527   0.629378
 C 0.47633 0.464454 0.703398   0.203828
 C 0.299217 0.49372 0.774596   0.24645
 C 0.825106 0.225685 0.477502   0.243019
 C 0.946173 0.049378 0.332957   0.001431
 C 0.716112 0.6513 0.456707   0.225619
 C 0.712813 0.961415 0.472371   0.667185
 C 0.960085 0.189024 0.207281   0.628187
 C 0.808914 0.121801 0.257811   -0.038716
 C 0.904618 0.118457 0.266812   -0.112343
 C 0.87957 0.0 0.394994   -0.146454
 C 0.646633 0.265063 0.551969   0.179556
 C 0.745575 0.066216 0.316786   -0.121552
 C 0.24661 0.170295 0.039144   0.19372
 C 0.013244 0.431928 0.20753   0.791653
 C 0.17846 0.490569 0.108448   -0.071233
 C 0.415561 0.486713 0.160478   0.648982
 C 0.644619 0.035522 0.796799   0.18906
 C 0.567373 0.007258 0.725409   0.244698
 C 0.527126 0.275556 0.022946   0.239314
 C 0.32781 0.451731 0.167033   -0.021188
 C 0.823356 0.849887 0.043658   0.226119
 C 0.145904 0.539508 0.027683   0.674097
 C 0.356027 0.311567 0.292264   0.629882
 C 0.187964 0.378961 0.242077   -0.065734
 C 0.289363 0.382325 0.232975   -0.099525
 C 0.273224 0.50173 0.10508   -0.144427
 C 0.463926 0.235427 0.947706   0.17736
 C 0.127913 0.434662 0.183243   -0.120171
 N 0.57355 0.509067 0.35705   -0.181721
 N 0.68776 0.489893 0.310672   -0.272108
 N 0.295872 0.431647 0.552098   -0.281558
 N 0.617816 0.71679 0.513283   -0.442677
 N 0.248933 0.817206 0.463187   -0.413435
 N 0.602075 0.536436 0.213281   -0.445308
 N 0.234011 0.673918 0.542991   -0.279855
 N 0.593961 0.582299 0.50113   -0.189366
 N 0.349697 0.648562 0.494845   -0.177522
 N 0.438956 0.0 0.142886   -0.090724
 N 0.488012 0.010671 0.189411   -0.342438
 N 0.279612 0.069039 0.947589   -0.293135
 N 0.847027 0.784037 0.987327   -0.441839
 N 0.529268 0.683497 0.036552   -0.352057
 N 0.351192 0.0 0.28658   -0.370313
 N 0.450761 0.826677 0.956799   -0.390661
 N 0.676728 0.918334 0.999325   -0.184091
 N 0.492235 0.852406 0.005362   -0.135271
 N 0.427547 0.491803 0.64294   -0.200735
 N 0.313372 0.510888 0.689369   -0.295255
 N 0.705122 0.569266 0.447917   -0.287886
 N 0.383156 0.284152 0.486689   -0.438162
 N 0.752251 0.183693 0.536852   -0.427766
 N 0.399171 0.464305 0.786688   -0.423948
 N 0.767084 0.327008 0.457073   -0.278883
 N 0.407076 0.418541 0.498956   -0.189422
 N 0.651392 0.352304 0.50515   -0.18371
 N 0.562516 0.008368 0.857144   -0.187676
 N 0.513466 0.989902 0.810592   -0.294792
 N 0.721696 0.931809 0.052326   -0.280286
 N 0.154301 0.21679 0.012646   -0.427236
 N 0.472158 0.317202 0.963277   -0.418728
 N 0.650361 0.036203 0.713466   -0.424775
 N 0.55051 0.174068 0.043154   -0.277928
 N 0.324541 0.082418 0.000667   -0.176637
 N 0.509087 0.148309 0.994567   -0.19152
 O 0.0 0.814603 0.784627   -0.468563
 O 0.444109 0.927519 0.649627   -0.622268
 O 0.090983 0.749 0.84888   -0.904382
 O 0.711169 0.971667 0.546329   -0.58755
 O 0.335763 0.090964 0.534585   -0.576157
 O 0.857226 0.059864 0.704578   -0.55447
 O 0.067464 0.051683 0.399617   -0.577871
 O 0.319645 0.937251 0.790627   -0.597665
 O 0.554682 0.686762 0.715789   -0.57061
 O 0.020979 0.573443 0.850155   -0.625009
 O 0.688566 0.752169 0.651467   -0.6432
 O 0.228394 0.529486 0.953737   -0.580249
 O 0.960981 0.409651 0.96528   -0.471511
 O 0.621279 0.440888 0.795012   -0.571105
 O 0.518121 0.449288 0.10061   -0.59702
 O 0.04746 0.56296 0.709257   -0.59716
 O 0.045027 0.186663 0.215435   -0.553439
 O 0.557329 0.07328 0.350414   -0.614885
 O 0.910423 0.251621 0.150915   -0.625973
 O 0.290189 0.029258 0.453621   -0.590957
 O 0.665908 0.909609 0.465381   -0.56758
 O 0.144191 0.94126 0.295237   -0.55877
 O 0.933895 0.949188 0.600426   -0.600641
 O 0.681719 0.063389 0.20937   -0.589684
 O 0.446447 0.314387 0.284289   -0.578963
 O 0.0 0.427411 0.149973   -0.559107
 O 0.313037 0.248405 0.348259   -0.622069
 O 0.772892 0.471392 0.046222   -0.402881
 O 0.040317 0.59092 0.034675   -0.585204
 O 0.38003 0.560173 0.204594   -0.565852
 O 0.483372 0.551232 0.89947   -0.606059
 O 0.953749 0.437916 0.290825   -0.651675
