#{'_ref': 'TBD', '_srcid': 'CAKYAQ_clean', 'submitters': [{'name': 'Dalar Nazarian Jeff Camp and David Sholl', 'email': 'dalar@gatech.edu jcamp6@gatech.edu'}], '_method': 'VASP DFT with PBE;DDEC'}
data_Cd2H32C37(N2O3)3
_symmetry_space_group_name_H-M   'P 1'
_cell_length_a   15.60000025
_cell_length_b   18.11900013
_cell_length_c   20.15500000
_cell_angle_alpha   66.76799877
_cell_angle_beta   89.96300015
_cell_angle_gamma   89.98999988
_symmetry_Int_Tables_number   1
_chemical_formula_structural   Cd2H32C37(N2O3)3
_chemical_formula_sum   'Cd8 H128 C148 N24 O36'
_cell_volume   5235.0033557
_cell_formula_units_Z   4
loop_
 _symmetry_equiv_pos_site_id
 _symmetry_equiv_pos_as_xyz
  1  'x, y, z'
loop_
 _atom_site_type_symbol
 _atom_site_fract_x
 _atom_site_fract_y
 _atom_site_fract_z
 _atom_site_charge
 Cd 0.914031 0.260824 0.731907   1.081463
 Cd 0.002032 0.181297 0.904511   1.02468
 Cd 0.414077 0.73886 0.768226   1.078862
 Cd 0.502536 0.818395 0.595837   1.024084
 Cd 0.085934 0.739167 0.26804   1.102269
 Cd 0.0 0.818694 0.095453   1.030014
 Cd 0.585912 0.261117 0.231738   1.080352
 Cd 0.497452 0.181588 0.404124   1.02337
 H 0.837527 0.152993 0.851437   0.400566
 H 0.832977 0.250188 0.852488   0.40043
 H 0.94187 0.167186 0.634344   0.087399
 H 0.027144 0.168638 0.52921   0.146642
 H 0.10098 0.412122 0.490227   0.140937
 H 0.013696 0.399759 0.597784   0.090543
 H 0.172241 0.098925 0.489645   0.148104
 H 0.177674 0.146471 0.552103   0.133552
 H 0.27053 0.138401 0.505174   0.130205
 H 0.09834 0.457479 0.279888   0.149856
 H 0.121638 0.476387 0.357453   0.125339
 H 0.024233 0.427635 0.352975   0.121319
 H 0.298952 0.159657 0.389899   0.101533
 H 0.31639 0.247784 0.309797   0.113599
 H 0.245565 0.32451 0.179702   0.144907
 H 0.260944 0.267081 0.126244   0.133608
 H 0.332315 0.255684 0.19787   0.150274
 H 0.088237 0.973717 0.303882   0.124795
 H 0.002532 0.043763 0.279757   0.131663
 H 0.045541 0.007322 0.368905   0.140586
 H 0.119971 0.284706 0.097791   0.145953
 H 0.062655 0.289367 0.981377   0.096056
 H 0.034202 0.041289 0.063886   0.09723
 H 0.096249 0.025964 0.180658   0.143324
 H 0.697616 0.97803 0.849181   0.104414
 H 0.60569 0.889651 0.808134   0.090987
 H 0.658263 0.042806 0.587459   0.112987
 H 0.751617 0.129111 0.628699   0.117231
 H 0.104975 0.462766 0.662241   0.095016
 H 0.199973 0.583593 0.633608   0.113348
 H 0.221206 0.532834 0.859365   0.107662
 H 0.128137 0.411197 0.888195   0.099766
 H 0.337659 0.846798 0.648618   0.4001
 H 0.333215 0.749571 0.647772   0.400256
 H 0.442312 0.833123 0.865292   0.088228
 H 0.527568 0.831819 0.970282   0.148536
 H 0.600732 0.58801 0.0   0.141145
 H 0.513498 0.600237 0.902405   0.090704
 H 0.672523 0.901448 0.0   0.1551
 H 0.677995 0.853698 0.947465   0.120682
 H 0.770805 0.861803 0.994333   0.125976
 H 0.598077 0.543126 0.219985   0.148226
 H 0.621669 0.523942 0.142587   0.12173
 H 0.524218 0.572804 0.14681   0.124356
 H 0.798958 0.840871 0.109587   0.10272
 H 0.816563 0.75267 0.189574   0.106865
 H 0.746128 0.675722 0.319775   0.14342
 H 0.76161 0.732997 0.373342   0.134859
 H 0.832832 0.744597 0.301524   0.148364
 H 0.588193 0.026223 0.196452   0.123436
 H 0.502633 0.956025 0.220882   0.131907
 H 0.54528 0.992593 0.131563   0.140396
 H 0.620805 0.715222 0.402325   0.145723
 H 0.563577 0.710418 0.518876   0.096031
 H 0.534636 0.958441 0.43649   0.098199
 H 0.596551 0.973911 0.319576   0.142171
 H 0.197203 0.021467 0.650526   0.104932
 H 0.10473 0.109671 0.69141   0.091748
 H 0.158715 0.957972 0.912142   0.112209
 H 0.252463 0.871745 0.871079   0.117126
 H 0.604756 0.53691 0.838048   0.093678
 H 0.699745 0.416053 0.866747   0.112449
 H 0.721384 0.466687 0.641022   0.107871
 H 0.628329 0.588368 0.612118   0.099989
 H 0.162461 0.846992 0.148516   0.400076
 H 0.167014 0.749799 0.147467   0.402556
 H 0.058076 0.83283 0.365583   0.086947
 H 0.972819 0.831376 0.470727   0.145177
 H 0.899002 0.587881 0.509729   0.138199
 H 0.986269 0.600248 0.402162   0.088312
 H 0.827741 0.901084 0.510306   0.147735
 H 0.822297 0.853535 0.44785   0.134048
 H 0.729449 0.861606 0.494786   0.129875
 H 0.901649 0.542532 0.720065   0.147889
 H 0.878355 0.523622 0.642501   0.121668
 H 0.975758 0.572378 0.64698   0.12291
 H 0.701033 0.840349 0.610057   0.101414
 H 0.683597 0.752221 0.690158   0.112897
 H 0.754406 0.675501 0.820255   0.144453
 H 0.739029 0.732932 0.873712   0.133345
 H 0.66766 0.744332 0.802083   0.150892
 H 0.911753 0.026286 0.69608   0.124114
 H 0.997454 0.956236 0.720206   0.132001
 H 0.954448 0.992682 0.631056   0.141076
 H 0.880005 0.715298 0.902162   0.145315
 H 0.937322 0.710629 0.0   0.094518
 H 0.965776 0.958706 0.936082   0.100303
 H 0.90373 0.97404 0.819308   0.143408
 H 0.302337 0.021968 0.150784   0.104574
 H 0.394279 0.110326 0.191837   0.091052
 H 0.341714 0.957156 0.412509   0.112056
 H 0.248326 0.87088 0.371264   0.117542
 H 0.895005 0.537221 0.337716   0.098896
 H 0.800012 0.416391 0.366355   0.115753
 H 0.77879 0.46713 0.140601   0.111411
 H 0.871853 0.58877 0.111765   0.101755
 H 0.662333 0.153174 0.351341   0.400199
 H 0.666779 0.250396 0.352198   0.400323
 H 0.557648 0.166849 0.134683   0.088499
 H 0.47239 0.168154 0.029695   0.146882
 H 0.399254 0.411973 0.990111   0.139999
 H 0.486489 0.399744 0.097559   0.090354
 H 0.327444 0.098539 0.990199   0.148666
 H 0.321961 0.146286 0.052496   0.134385
 H 0.229158 0.138186 0.005618   0.130541
 H 0.401927 0.456853 0.779984   0.149319
 H 0.378324 0.476042 0.857378   0.121639
 H 0.475773 0.427171 0.853169   0.122856
 H 0.201017 0.159123 0.890358   0.102151
 H 0.183428 0.24733 0.810372   0.112466
 H 0.253857 0.324268 0.680178   0.145558
 H 0.238387 0.266991 0.62661   0.134423
 H 0.167155 0.255392 0.698421   0.149731
 H 0.411791 0.973766 0.803508   0.123532
 H 0.497354 0.043963 0.77908   0.131519
 H 0.454706 0.007397 0.868398   0.139461
 H 0.379195 0.284764 0.597636   0.145907
 H 0.436425 0.289567 0.481086   0.096434
 H 0.46535 0.041542 0.56347   0.098115
 H 0.403434 0.026073 0.680384   0.142165
 H 0.802791 0.978505 0.349391   0.104764
 H 0.895249 0.890317 0.308478   0.09236
 H 0.841276 0.042085 0.08776   0.11207
 H 0.747532 0.12829 0.128854   0.116642
 H 0.395239 0.46308 0.161915   0.093743
 H 0.300253 0.583938 0.133215   0.111907
 H 0.278614 0.533306 0.35894   0.10767
 H 0.371667 0.411625 0.387844   0.098766
 C 0.979241 0.219638 0.60133   0.162622
 C 0.027339 0.220955 0.543071   -0.252635
 C 0.074357 0.290093 0.50102   0.243233
 C 0.066704 0.356533 0.520377   -0.250611
 C 0.017924 0.350309 0.580026   0.152614
 C 0.127771 0.291048 0.441334   -0.302273
 C 0.179837 0.227936 0.441701   0.176492
 C 0.20098 0.148776 0.500037   -0.414174
 C 0.135871 0.352705 0.370194   0.315612
 C 0.092633 0.43256 0.338882   -0.410808
 C 0.267784 0.208297 0.345188   -0.036331
 C 0.209969 0.199757 0.23138   0.19315
 C 0.264724 0.265443 0.181097   -0.430428
 C 0.149096 0.149025 0.21977   -0.300441
 C 0.124863 0.093271 0.290514   0.329728
 C 0.061738 0.026078 0.311588   -0.416732
 C 0.115148 0.154286 0.150869   0.241063
 C 0.104327 0.228918 0.09219   -0.2478
 C 0.070686 0.232481 0.027493   0.153221
 C 0.055111 0.093962 0.072921   0.156204
 C 0.089003 0.085974 0.138979   -0.230047
 C 0.788821 0.108147 0.766653   0.643213
 C 0.730402 0.05816 0.741477   -0.080715
 C 0.688308 0.991231 0.792103   -0.089869
 C 0.637226 0.942784 0.769342   -0.065228
 C 0.626008 0.961212 0.695405   -0.100459
 C 0.66668 0.029169 0.644714   -0.071503
 C 0.718725 0.07696 0.667597   -0.079811
 C 0.574661 0.906301 0.671489   0.644205
 C 0.056514 0.35603 0.793603   0.675225
 C 0.110637 0.429758 0.776881   -0.093501
 C 0.130751 0.478662 0.705053   -0.074128
 C 0.183363 0.54546 0.689128   -0.089038
 C 0.216566 0.56486 0.744896   -0.074714
 C 0.275236 0.635897 0.72767   0.658433
 C 0.195462 0.516734 0.816647   -0.080868
 C 0.14345 0.449587 0.832501   -0.068952
 C 0.479545 0.780638 0.898391   0.163833
 C 0.527634 0.779393 0.956581   -0.252142
 C 0.574459 0.710206 0.998763   0.247561
 C 0.566618 0.643647 0.979597   -0.249285
 C 0.517863 0.649794 0.920007   0.146561
 C 0.627851 0.709302 0.058388   -0.301245
 C 0.67997 0.772415 0.057921   0.173382
 C 0.701242 0.851496 0.99949   -0.404087
 C 0.635876 0.647714 0.129565   0.318709
 C 0.592569 0.56789 0.160987   -0.410337
 C 0.767881 0.792153 0.15433   -0.032234
 C 0.710361 0.800437 0.268384   0.192338
 C 0.765267 0.734766 0.318437   -0.429891
 C 0.64947 0.851013 0.280255   -0.299417
 C 0.624961 0.906765 0.209615   0.329424
 C 0.561708 0.973833 0.188819   -0.415229
 C 0.615685 0.845637 0.34928   0.240518
 C 0.605071 0.770974 0.407972   -0.246628
 C 0.571485 0.767325 0.472751   0.153997
 C 0.55563 0.905814 0.427397   0.155763
 C 0.589455 0.913882 0.361261   -0.229942
 C 0.289301 0.892089 0.733082   0.643392
 C 0.230681 0.941994 0.758262   -0.081105
 C 0.188082 0.008521 0.707588   -0.088969
 C 0.136688 0.05688 0.730259   -0.065362
 C 0.125672 0.038822 0.804165   -0.102265
 C 0.166931 0.971322 0.85491   -0.070803
 C 0.219231 0.923578 0.832113   -0.080373
 C 0.073756 0.093609 0.827919   0.645859
 C 0.556479 0.643551 0.706648   0.674854
 C 0.610632 0.569844 0.72342   -0.092821
 C 0.630618 0.520975 0.795261   -0.074502
 C 0.683225 0.454173 0.811221   -0.090107
 C 0.716522 0.43475 0.755467   -0.073986
 C 0.775192 0.363738 0.772692   0.657738
 C 0.695547 0.482838 0.683705   -0.080279
 C 0.643545 0.549989 0.667817   -0.067986
 C 0.020712 0.780377 0.398604   0.162313
 C 0.972623 0.779057 0.456869   -0.25213
 C 0.925616 0.709915 0.498927   0.241506
 C 0.93327 0.643474 0.479573   -0.25238
 C 0.98204 0.649699 0.419918   0.152972
 C 0.872211 0.70896 0.558619   -0.301029
 C 0.820146 0.772072 0.558253   0.175917
 C 0.798998 0.851231 0.499917   -0.413977
 C 0.864117 0.647304 0.629759   0.315441
 C 0.907357 0.567451 0.661072   -0.408629
 C 0.732202 0.79171 0.654768   -0.035477
 C 0.79001 0.800252 0.768577   0.1946
 C 0.73525 0.734569 0.818859   -0.431428
 C 0.850884 0.850983 0.780189   -0.30245
 C 0.87512 0.906735 0.709445   0.329686
 C 0.938249 0.973924 0.688373   -0.416929
 C 0.884832 0.845719 0.84909   0.243001
 C 0.895651 0.771084 0.907766   -0.260944
 C 0.929293 0.767516 0.972465   0.172868
 C 0.94487 0.906035 0.927043   0.159432
 C 0.910979 0.914028 0.860983   -0.230176
 C 0.211077 0.891887 0.233292   0.643472
 C 0.269531 0.941837 0.258485   -0.079455
 C 0.311645 0.008759 0.207864   -0.090458
 C 0.36274 0.057195 0.230628   -0.065531
 C 0.373965 0.038761 0.304565   -0.101235
 C 0.333288 0.970804 0.355252   -0.071333
 C 0.281223 0.923027 0.332366   -0.080202
 C 0.425322 0.093671 0.328478   0.644582
 C 0.943474 0.643947 0.206353   0.624173
 C 0.889349 0.57022 0.223077   -0.07624
 C 0.869233 0.52132 0.294906   -0.074462
 C 0.816623 0.454519 0.310835   -0.088518
 C 0.783424 0.435113 0.255069   -0.064929
 C 0.724757 0.364071 0.272301   0.656044
 C 0.80453 0.483234 0.183317   -0.082609
 C 0.856539 0.550385 0.167459   -0.062135
 C 0.52042 0.219337 0.101582   0.16241
 C 0.47233 0.220582 0.043393   -0.25168
 C 0.425513 0.289773 0.001206   0.242943
 C 0.433361 0.356333 0.020369   -0.250446
 C 0.482117 0.350185 0.079959   0.152182
 C 0.372124 0.290681 0.941579   -0.301929
 C 0.320001 0.227572 0.942041   0.176767
 C 0.298722 0.148491 0.000467999999998   -0.414798
 C 0.364109 0.35227 0.870401   0.316212
 C 0.407424 0.43209 0.838984   -0.410176
 C 0.232102 0.207841 0.845622   -0.034894
 C 0.289628 0.199553 0.731571   0.19276
 C 0.234723 0.265223 0.681514   -0.431026
 C 0.350518 0.148975 0.719703   -0.300178
 C 0.375026 0.093226 0.790345   0.328864
 C 0.438277 0.026157 0.811142   -0.414652
 C 0.384305 0.154348 0.65068   0.240561
 C 0.394925 0.229012 0.591988   -0.246582
 C 0.428512 0.23266 0.527211   0.153326
 C 0.444358 0.09417 0.572563   0.155584
 C 0.410532 0.086102 0.638698   -0.230185
 C 0.710696 0.107902 0.266858   0.643924
 C 0.769315 0.058008 0.241665   -0.081887
 C 0.81191 0.991469 0.292327   -0.089317
 C 0.863297 0.943119 0.269639   -0.065714
 C 0.874311 0.961202 0.195727   -0.100932
 C 0.833061 0.028717 0.144995   -0.069992
 C 0.780764 0.076449 0.167809   -0.080826
 C 0.9262 0.906424 0.171948   0.646135
 C 0.443517 0.356437 0.293316   0.675721
 C 0.389365 0.430146 0.276543   -0.09645
 C 0.369377 0.479015 0.204703   -0.074476
 C 0.31677 0.545817 0.188742   -0.091536
 C 0.283474 0.565244 0.244495   -0.070739
 C 0.224807 0.636261 0.227267   0.657497
 C 0.304449 0.517155 0.316257   -0.081173
 C 0.356451 0.450003 0.332145   -0.068609
 N 0.974951 0.282872 0.620772   -0.352078
 N 0.215281 0.254087 0.37443   0.134564
 N 0.187819 0.329109 0.329575   -0.403148
 N 0.165864 0.109093 0.341478   -0.417673
 N 0.218107 0.172964 0.304469   0.138218
 N 0.045883 0.166103 0.017108   -0.394947
 N 0.475072 0.717276 0.879136   -0.351035
 N 0.71535 0.746338 0.125172   0.134805
 N 0.687822 0.671356 0.170105   -0.406139
 N 0.665834 0.891092 0.158473   -0.418619
 N 0.718262 0.827321 0.195257   0.138142
 N 0.546564 0.83364 0.483206   -0.394392
 N 0.025003 0.71714 0.379164   -0.352355
 N 0.784709 0.745922 0.625527   0.134409
 N 0.812173 0.670902 0.67038   -0.405683
 N 0.834121 0.890913 0.65848   -0.416325
 N 0.781875 0.827045 0.695487   0.137952
 N 0.954097 0.833892 0.982853   -0.399242
 N 0.524901 0.282701 0.120833   -0.352049
 N 0.284629 0.253653 0.874787   0.134587
 N 0.312166 0.328633 0.829857   -0.403967
 N 0.334154 0.108903 0.841485   -0.417862
 N 0.281728 0.172675 0.804697   0.138066
 N 0.453429 0.166344 0.516755   -0.393721
 O 0.78891 0.093851 0.833694   -0.56879
 O 0.834954 0.160388 0.71816   -0.625212
 O 0.547705 0.840177 0.717928   -0.635746
 O 0.563207 0.928016 0.602728   -0.613174
 O 0.055064 0.306273 0.860024   -0.633897
 O 0.018482 0.347507 0.741582   -0.611777
 O 0.284984 0.681112 0.661048   -0.571611
 O 0.310957 0.644979 0.780984   -0.617254
 O 0.873763 0.20001 0.855962   -0.857821
 O 0.288882 0.905937 0.666134   -0.56682
 O 0.336136 0.840417 0.781375   -0.626914
 O 0.045252 0.15881 0.781253   -0.63458
 O 0.06341 0.072573 0.896758   -0.615524
 O 0.555042 0.693236 0.640219   -0.632675
 O 0.518359 0.652069 0.758679   -0.611659
 O 0.784943 0.318601 0.839332   -0.57212
 O 0.810917 0.354592 0.719389   -0.615997
 O 0.373987 0.799711 0.644256   -0.856235
 O 0.211094 0.90612 0.166264   -0.568812
 O 0.164801 0.839749 0.281744   -0.626442
 O 0.452284 0.15979 0.282033   -0.635853
 O 0.436777 0.071965 0.397239   -0.613636
 O 0.944926 0.693705 0.139933   -0.582014
 O 0.0 0.652465 0.258376   -0.655038
 O 0.715005 0.318865 0.338925   -0.56989
 O 0.689044 0.354979 0.218989   -0.614524
 O 0.126224 0.799974 0.143995   -0.862722
 O 0.711108 0.094036 0.333809   -0.567295
 O 0.663868 0.159585 0.218567   -0.627227
 O 0.954616 0.841162 0.218589   -0.635901
 O 0.936615 0.927513 0.103112   -0.618095
 O 0.444952 0.306751 0.359744   -0.633889
 O 0.481634 0.347916 0.241286   -0.612364
 O 0.215056 0.68139 0.160625   -0.577244
 O 0.189086 0.64542 0.280566   -0.614357
 O 0.626008 0.200257 0.355713   -0.856586
