#{'_ref': 'TBD', '_srcid': 'CAKYAQ_clean', 'submitters': [{'name': 'Dalar Nazarian Jeff Camp and David Sholl', 'email': 'dalar@gatech.edu jcamp6@gatech.edu'}], '_method': 'VASP DFT with PBE;DDEC'}
data_ZnH20C28(NO2)2
_symmetry_space_group_name_H-M   'P 1'
_cell_length_a   8.60900007
_cell_length_b   13.09299980
_cell_length_c   15.04573529
_cell_angle_alpha   64.23836831
_cell_angle_beta   84.00222275
_cell_angle_gamma   75.36700154
_symmetry_Int_Tables_number   1
_chemical_formula_structural   ZnH20C28(NO2)2
_chemical_formula_sum   'Zn2 H40 C56 N4 O8'
_cell_volume   1477.7930947
_cell_formula_units_Z   2
loop_
 _symmetry_equiv_pos_site_id
 _symmetry_equiv_pos_as_xyz
  1  'x, y, z'
loop_
 _atom_site_type_symbol
 _atom_site_fract_x
 _atom_site_fract_y
 _atom_site_fract_z
 _atom_site_charge
 Zn 0.486716 0.788946 0.823073   0.847475
 Zn 0.980624 0.615424 0.176051   0.849599
 H 0.982654 0.719853 0.736255   0.092255
 H 0.239688 0.703426 0.644972   0.111686
 H 0.979074 0.741454 0.398028   0.119268
 H 0.724902 0.758608 0.49041   0.09804
 H 0.386792 0.693733 0.510266   0.10634
 H 0.207266 0.703363 0.338076   0.129153
 H 0.365376 0.720632 0.193769   0.139206
 H 0.631194 0.686594 0.116497   0.085292
 H 0.870326 0.580335 0.378967   0.101492
 H 0.615562 0.611918 0.466436   0.135107
 H 0.602532 0.893613 0.058072   0.094264
 H 0.693212 0.014506 0.122294   0.115815
 H 0.693952 0.282181 0.825057   0.107608
 H 0.602784 0.160088 0.762957   0.110478
 H 0.771398 0.180337 0.100371   0.093609
 H 0.759042 0.379705 0.891507   0.111495
 H 0.863398 0.261866 0.167066   0.130957
 H 0.94664 0.384401 0.232525   0.089421
 H 0.894554 0.666974 0.958047   0.102463
 H 0.812116 0.557567 0.879939   0.136174
 H 0.477864 0.459385 0.264162   0.092022
 H 0.73666 0.350621 0.355333   0.111966
 H 0.480802 0.138974 0.600773   0.119224
 H 0.224858 0.249679 0.508552   0.097207
 H 0.886444 0.204438 0.489321   0.105568
 H 0.710244 0.0407 0.66079   0.128878
 H 0.871064 0.913085 0.805081   0.139189
 H 0.138212 0.801151 0.88226   0.084446
 H 0.372488 0.957877 0.619927   0.100868
 H 0.11609 0.077606 0.532513   0.135798
 H 0.10255 0.951782 0.941658   0.094427
 H 0.196426 0.135323 0.877937   0.115268
 H 0.191044 0.109474 0.174368   0.107418
 H 0.097176 0.926685 0.236006   0.110551
 H 0.277086 0.27812 0.900284   0.093469
 H 0.2523 0.275077 0.107236   0.111443
 H 0.367372 0.426198 0.833683   0.129811
 H 0.454176 0.612488 0.768104   0.090183
 H 0.395558 0.626331 0.040162   0.102444
 H 0.307944 0.441145 0.118207   0.137853
 C 0.681848 0.747005 0.674153   0.634892
 C 0.837822 0.737841 0.619865   -0.100701
 C 0.98362 0.723004 0.662756   -0.061068
 C 0.126896 0.713422 0.611742   -0.155881
 C 0.129566 0.717198 0.51645   0.100577
 C 0.981768 0.734792 0.472697   -0.148221
 C 0.839098 0.744718 0.523899   -0.063162
 C 0.284274 0.700521 0.469004   -0.083654
 C 0.309214 0.692594 0.381518   -0.176636
 C 0.465286 0.672179 0.337089   0.192599
 C 0.474592 0.690829 0.237213   -0.214975
 C 0.622556 0.671004 0.194044   0.132372
 C 0.755586 0.613152 0.340496   0.153178
 C 0.612412 0.63149 0.388421   -0.218193
 C 0.547636 0.946913 0.864809   0.61032
 C 0.597176 0.019085 0.906412   -0.104301
 C 0.622558 0.978763 0.007741   -0.030112
 C 0.672646 0.047108 0.043307   -0.141377
 C 0.699378 0.157718 0.978953   0.086323
 C 0.673104 0.197607 0.877029   -0.140964
 C 0.622466 0.129591 0.841637   -0.066268
 C 0.752498 0.224779 0.020494   -0.065564
 C 0.778768 0.333467 0.971198   -0.170046
 C 0.829904 0.397892 0.016181   0.179679
 C 0.868652 0.351014 0.117245   -0.217899
 C 0.91513 0.418195 0.154752   0.129769
 C 0.888128 0.576385 0.001469   0.14243
 C 0.84202 0.513963 0.958361   -0.216481
 C 0.178298 0.423774 0.3255   0.634729
 C 0.335304 0.359759 0.379795   -0.099879
 C 0.480272 0.388229 0.337301   -0.060383
 C 0.624524 0.327031 0.388244   -0.156184
 C 0.629046 0.234437 0.483056   0.100307
 C 0.482072 0.20785 0.526453   -0.1484
 C 0.338418 0.26962 0.475341   -0.063087
 C 0.784694 0.169734 0.530357   -0.084019
 C 0.811348 0.073609 0.617488   -0.174733
 C 0.968274 0.008322 0.661823   0.191022
 C 0.979452 0.926728 0.761643   -0.212606
 C 0.128218 0.86342 0.80477   0.131994
 C 0.258494 0.952273 0.658401   0.153528
 C 0.114428 0.018905 0.610504   -0.219574
 C 0.042442 0.814697 0.134241   0.611362
 C 0.093884 0.927598 0.092884   -0.104025
 C 0.121926 0.987093 0.991909   -0.030128
 C 0.173786 0.090115 0.956621   -0.140253
 C 0.199344 0.137084 0.02087   0.083641
 C 0.170686 0.076458 0.122446   -0.139863
 C 0.118526 0.97387 0.15757   -0.065609
 C 0.253816 0.244948 0.979541   -0.063023
 C 0.276508 0.306162 0.028229   -0.171112
 C 0.329672 0.414577 0.983311   0.178922
 C 0.37182 0.46649 0.88295   -0.212739
 C 0.420564 0.570134 0.845413   0.129117
 C 0.389516 0.578353 0.997311   0.145146
 C 0.340566 0.474085 0.040413   -0.220628
 N 0.762484 0.632663 0.244264   -0.334518
 N 0.924878 0.530129 0.098359   -0.341919
 N 0.26722 0.875247 0.754605   -0.333254
 N 0.429682 0.626727 0.901127   -0.343813
 O 0.691234 0.753273 0.757628   -0.602528
 O 0.555538 0.74741 0.639515   -0.596028
 O 0.538858 0.840976 0.924103   -0.594063
 O 0.519556 0.989317 0.773623   -0.576935
 O 0.186102 0.513927 0.24223   -0.604177
 O 0.052664 0.38945 0.360059   -0.595554
 O 0.03332 0.76782 0.075109   -0.594488
 O 0.013236 0.766828 0.225122   -0.578109
