#{'_ref': 'TBD', '_srcid': 'CAKYAQ_clean', 'submitters': [{'name': 'Dalar Nazarian Jeff Camp and David Sholl', 'email': 'dalar@gatech.edu jcamp6@gatech.edu'}], '_method': 'VASP DFT with PBE;DDEC'}
data_BaH6PtC14(NO)4
_symmetry_space_group_name_H-M   'P 1'
_cell_length_a   7.69549993
_cell_length_b   14.66700035
_cell_length_c   15.81300000
_cell_angle_alpha   90.02000098
_cell_angle_beta   90.05000305
_cell_angle_gamma   92.04500056
_symmetry_Int_Tables_number   1
_chemical_formula_structural   BaH6PtC14(NO)4
_chemical_formula_sum   'Ba4 H24 Pt4 C56 N16 O16'
_cell_volume   1783.67419154
_cell_formula_units_Z   4
loop_
 _symmetry_equiv_pos_site_id
 _symmetry_equiv_pos_as_xyz
  1  'x, y, z'
loop_
 _atom_site_label
 _atom_site_fract_x
 _atom_site_fract_y
 _atom_site_fract_z
 _atom_site_charge
 Ba 0.754308 0.067453 0.061063   1.591392
 Ba 0.744982 0.432673 0.560919   1.59993
 Ba 0.24567 0.932549 0.938922   1.596099
 Ba 0.255006 0.567326 0.439064   1.599677
 H 0.895668 0.612735 0.807412   0.120085
 H 0.87661 0.782857 0.825355   0.161251
 H 0.63804 0.731782 0.067431   0.150657
 H 0.568394 0.63615 0.156736   0.141816
 H 0.583358 0.354704 0.225459   0.15201
 H 0.725438 0.324234 0.084595   0.097032
 H 0.604106 0.88717 0.307133   0.120306
 H 0.623728 0.717131 0.325166   0.160731
 H 0.863842 0.768758 0.567027   0.151046
 H 0.932394 0.864395 0.656495   0.139282
 H 0.917418 0.145929 0.725115   0.153685
 H 0.77445 0.176123 0.584338   0.098339
 H 0.10432 0.387265 0.192568   0.120882
 H 0.12338 0.217145 0.174625   0.161296
 H 0.361954 0.268219 0.93255   0.154011
 H 0.431604 0.363851 0.843246   0.143183
 H 0.416634 0.645294 0.774522   0.152737
 H 0.274562 0.675768 0.915387   0.098603
 H 0.395878 0.11283 0.692851   0.122067
 H 0.376266 0.282869 0.674818   0.161013
 H 0.13615 0.231244 0.432957   0.150581
 H 0.067596 0.135606 0.343487   0.141458
 H 0.082558 0.854072 0.27487   0.152124
 H 0.225522 0.823876 0.415647   0.098036
 Pt 0.822824 0.440323 0.924116   0.03604
 Pt 0.676626 0.059828 0.423882   0.035778
 Pt 0.177166 0.559679 0.075865   0.037156
 Pt 0.323356 0.940172 0.576102   0.036883
 C 0.843786 0.642371 0.864796   0.078976
 C 0.82843 0.736009 0.874301   -0.146296
 C 0.75459 0.769626 0.948451   0.030664
 C 0.698636 0.70721 0.010087   -0.155134
 C 0.725286 0.61454 0.999298   0.12965
 C 0.682014 0.546455 0.064302   0.127953
 C 0.603622 0.567119 0.140871   -0.154811
 C 0.565842 0.498448 0.19956   0.035156
 C 0.611534 0.409502 0.180492   -0.137152
 C 0.689172 0.392212 0.103299   0.069745
 C 0.739838 0.870324 0.966719   0.714115
 C 0.468814 0.520808 0.279695   0.621703
 C 0.90686 0.432944 0.806613   0.12934
 C 0.827092 0.307867 0.938679   0.149118
 C 0.656406 0.857676 0.364514   0.078729
 C 0.67219 0.764069 0.37405   -0.146748
 C 0.746648 0.730618 0.448162   0.029994
 C 0.8027 0.793171 0.509728   -0.154401
 C 0.775448 0.885784 0.498956   0.128957
 C 0.818572 0.95395 0.563987   0.131108
 C 0.897148 0.933403 0.640581   -0.153269
 C 0.93491 0.0 0.699307   0.035841
 C 0.88916 0.091045 0.680189   -0.13733
 C 0.811058 0.108197 0.603014   0.066357
 C 0.761584 0.629954 0.466555   0.715067
 C 0.031774 0.979605 0.779513   0.622196
 C 0.592394 0.067221 0.306351   0.134367
 C 0.671536 0.192246 0.438575   0.150445
 C 0.156218 0.357629 0.135187   0.080214
 C 0.171566 0.263991 0.12568   -0.146787
 C 0.245386 0.230379 0.051522   0.031526
 C 0.301362 0.292794 0.989892   -0.14585
 C 0.274712 0.385464 0.0   0.127504
 C 0.317974 0.453546 0.935678   0.128175
 C 0.39637 0.432881 0.85911   -0.154275
 C 0.43417 0.501553 0.800425   0.035371
 C 0.388456 0.590497 0.819489   -0.135699
 C 0.310826 0.607789 0.896684   0.070663
 C 0.26014 0.12968 0.033257   0.67212
 C 0.5312 0.479193 0.720292   0.621243
 C 0.093154 0.567059 0.193371   0.128952
 C 0.172932 0.692136 0.061308   0.149458
 C 0.34358 0.142323 0.635469   0.078855
 C 0.327806 0.235931 0.625934   -0.146157
 C 0.25334 0.269383 0.551825   0.029619
 C 0.19729 0.206832 0.490256   -0.155424
 C 0.224544 0.114218 0.501027   0.129443
 C 0.18141 0.046052 0.435997   0.128921
 C 0.102832 0.066596 0.359403   -0.154781
 C 0.065072 0.99787 0.300676   0.034532
 C 0.110822 0.908955 0.319795   -0.137397
 C 0.18892 0.891803 0.396971   0.071317
 C 0.238412 0.370048 0.533432   0.715305
 C 0.96822 0.020397 0.220464   0.622061
 C 0.4076 0.932779 0.693632   0.126973
 C 0.328458 0.807755 0.561407   0.150406
 N 0.796994 0.582342 0.926362   -0.127754
 N 0.72211 0.458653 0.045516   -0.115073
 N 0.946696 0.43175 0.734817   -0.484407
 N 0.816382 0.230612 0.958651   -0.506881
 N 0.703242 0.917832 0.426052   -0.126752
 N 0.777978 0.041687 0.545244   -0.116128
 N 0.552714 0.068606 0.234506   -0.492974
 N 0.681806 0.269498 0.458638   -0.510928
 N 0.202998 0.417659 0.073618   -0.126722
 N 0.277898 0.541349 0.954469   -0.115548
 N 0.053292 0.568249 0.265164   -0.484526
 N 0.183598 0.76939 0.041328   -0.510391
 N 0.296742 0.082167 0.573932   -0.126764
 N 0.222002 0.958314 0.45474   -0.117267
 N 0.447272 0.931394 0.765478   -0.47994
 N 0.318182 0.730502 0.541346   -0.511712
 O 0.878806 0.919043 0.966943   -0.67623
 O 0.590276 0.8988 0.98534   -0.740067
 O 0.452306 0.604977 0.29611   -0.6542
 O 0.407286 0.454187 0.32247   -0.642279
 O 0.622478 0.581322 0.46683   -0.677465
 O 0.911138 0.601448 0.485242   -0.742778
 O 0.046144 0.895357 0.796162   -0.656363
 O 0.095264 0.046005 0.822062   -0.637299
 O 0.12118 0.080955 0.033053   -0.641124
 O 0.409706 0.101197 0.0   -0.749731
 O 0.547694 0.395023 0.703874   -0.653625
 O 0.59271 0.545815 0.677511   -0.642167
 O 0.377524 0.418676 0.533151   -0.677854
 O 0.088862 0.398556 0.51474   -0.743163
 O 0.953824 0.104645 0.203823   -0.656007
 O 0.90471 0.953995 0.177923   -0.641696
