#{'_ref': 'TBD', '_srcid': 'CAKYAQ_clean', 'submitters': [{'name': 'Dalar Nazarian Jeff Camp and David Sholl', 'email': 'dalar@gatech.edu jcamp6@gatech.edu'}], '_method': 'VASP DFT with PBE;DDEC'}
data_SrH6PtC14(NO)4
_symmetry_space_group_name_H-M   'P 1'
_cell_length_a   7.23800002
_cell_length_b   9.83000012
_cell_length_c   13.08100000
_cell_angle_alpha   79.30600204
_cell_angle_beta   84.70699842
_cell_angle_gamma   81.28199854
_symmetry_Int_Tables_number   1
_chemical_formula_structural   SrH6PtC14(NO)4
_chemical_formula_sum   'Sr2 H12 Pt2 C28 N8 O8'
_cell_volume   902.004366432
_cell_formula_units_Z   2
loop_
 _symmetry_equiv_pos_site_id
 _symmetry_equiv_pos_as_xyz
  1  'x, y, z'
loop_
 _atom_site_type_symbol
 _atom_site_fract_x
 _atom_site_fract_y
 _atom_site_fract_z
 _atom_site_charge
 Sr 0.735882 0.461262 0.604838   1.599149
 Sr 0.264038 0.538704 0.395151   1.599036
 H 0.08216 0.340772 0.992612   0.11202
 H 0.091474 0.495346 0.815907   0.139318
 H 0.382672 0.138104 0.692283   0.15145
 H 0.466404 0.921238 0.723441   0.150269
 H 0.42367 0.55202 0.949223   0.121705
 H 0.300576 0.700736 0.083457   0.119504
 H 0.917788 0.6592 0.007377   0.112151
 H 0.908474 0.504618 0.18408   0.139344
 H 0.617262 0.861848 0.307712   0.151623
 H 0.533552 0.078726 0.276559   0.150967
 H 0.576252 0.447942 0.050771   0.12341
 H 0.699338 0.299224 0.916535   0.113644
 Pt 0.18908 0.024356 0.079262   0.029678
 Pt 0.810868 0.975618 0.920731   0.032437
 C 0.143816 0.30077 0.923161   0.075328
 C 0.151292 0.385024 0.825701   -0.122262
 C 0.238186 0.325618 0.741292   0.008703
 C 0.312844 0.184556 0.757306   -0.141166
 C 0.29183 0.102988 0.855697   0.140386
 C 0.345862 0.950958 0.877532   0.109719
 C 0.427808 0.872292 0.802562   -0.12734
 C 0.461306 0.727106 0.828554   0.032485
 C 0.40739 0.665064 0.929374   -0.113575
 C 0.334416 0.746992 0.00297   0.061857
 C 0.246298 0.409294 0.632948   0.727981
 C 0.55621 0.637166 0.751305   0.627556
 C 0.08094 0.172854 0.157977   0.081494
 C 0.186212 0.882006 0.206003   0.169514
 C 0.856132 0.699198 0.07683   0.075289
 C 0.848658 0.61494 0.174289   -0.121958
 C 0.761756 0.674344 0.258697   0.008559
 C 0.6871 0.815408 0.242685   -0.140859
 C 0.708112 0.89698 0.144297   0.139496
 C 0.65409 0.049014 0.122465   0.112952
 C 0.57214 0.127674 0.197437   -0.132876
 C 0.53863 0.272858 0.171441   0.036275
 C 0.59254 0.3349 0.070621   -0.114658
 C 0.665514 0.252974 0.0   0.062749
 C 0.753628 0.59066 0.367038   0.727425
 C 0.443744 0.36281 0.248686   0.626172
 C 0.919006 0.827132 0.842013   0.081317
 C 0.813696 0.117962 0.793986   0.169655
 N 0.209292 0.162606 0.938115   -0.111087
 N 0.304566 0.887842 0.977942   -0.11246
 N 0.016482 0.271686 0.194426   -0.407843
 N 0.191412 0.791678 0.278994   -0.54393
 N 0.790658 0.837364 0.061879   -0.112333
 N 0.695356 0.112124 0.022049   -0.113466
 N 0.983462 0.7283 0.805565   -0.407057
 N 0.808518 0.20829 0.720996   -0.543437
 O 0.404408 0.41159 0.582187   -0.725348
 O 0.093282 0.470486 0.595619   -0.724573
 O 0.585812 0.694804 0.657347   -0.65199
 O 0.601362 0.507302 0.786369   -0.675865
 O 0.595518 0.588408 0.417801   -0.725043
 O 0.90663 0.529416 0.404359   -0.724317
 O 0.414162 0.305182 0.342649   -0.651373
 O 0.398598 0.49267 0.213617   -0.6758
