#{'_ref': 'TBD', '_srcid': 'CAKYAQ_clean', 'submitters': [{'name': 'Dalar Nazarian Jeff Camp and David Sholl', 'email': 'dalar@gatech.edu jcamp6@gatech.edu'}], '_method': 'VASP DFT with PBE;DDEC'}
data_ZnH11C11NO6
_symmetry_space_group_name_H-M   'P 1'
_cell_length_a   12.48599966
_cell_length_b   19.09699951
_cell_length_c   15.53600000
_cell_angle_alpha   90.20099918
_cell_angle_beta   90.03100195
_cell_angle_gamma   83.79199857
_symmetry_Int_Tables_number   1
_chemical_formula_structural   ZnH11C11NO6
_chemical_formula_sum   'Zn8 H88 C88 N8 O48'
_cell_volume   3682.73725597
_cell_formula_units_Z   8
loop_
 _symmetry_equiv_pos_site_id
 _symmetry_equiv_pos_as_xyz
  1  'x, y, z'
loop_
 _atom_site_type_symbol
 _atom_site_fract_x
 _atom_site_fract_y
 _atom_site_fract_z
 _atom_site_charge
 Zn 0.954032 0.183362 0.921914   1.034325
 Zn 0.954032 0.683369 0.921914   1.030573
 Zn 0.546402 0.066628 0.421839   1.031394
 Zn 0.546402 0.566633 0.421838   1.032499
 Zn 0.045962 0.316639 0.078088   1.031294
 Zn 0.045961 0.816645 0.078088   1.030289
 Zn 0.453604 0.433364 0.578142   1.031935
 Zn 0.453604 0.93337 0.578141   1.031636
 H 0.90685 0.471899 0.935142   0.113576
 H 0.906852 0.971905 0.93514   0.113598
 H 0.675888 0.037254 0.737864   0.105725
 H 0.67589 0.53726 0.737863   0.104225
 H 0.726228 0.319588 0.814882   0.105743
 H 0.726227 0.819594 0.814884   0.105292
 H 0.594748 0.277452 0.436042   0.113727
 H 0.594758 0.777457 0.43605   0.113158
 H 0.824348 0.211597 0.237593   0.104602
 H 0.824353 0.711602 0.237598   0.104813
 H 0.771974 0.429864 0.313684   0.106225
 H 0.771983 0.929869 0.31369   0.106675
 H 0.093116 0.028115 0.064873   0.114921
 H 0.093115 0.528121 0.064873   0.113975
 H 0.323997 0.462758 0.262207   0.10501
 H 0.323995 0.962765 0.262209   0.113492
 H 0.27385 0.1804 0.185058   0.107741
 H 0.273851 0.680406 0.185058   0.104844
 H 0.405182 0.22256 0.563936   0.112025
 H 0.405183 0.722567 0.563936   0.113528
 H 0.175707 0.288374 0.762486   0.104166
 H 0.175708 0.78838 0.762487   0.102892
 H 0.228028 0.070123 0.686318   0.10435
 H 0.22803 0.570129 0.686319   0.107492
 H 0.293936 0.004839 0.954625   0.12889
 H 0.293935 0.504853 0.954625   0.117927
 H 0.377337 0.509002 0.860915   0.124708
 H 0.377335 0.0 0.860915   0.137916
 H 0.361523 0.425708 0.90897   0.126603
 H 0.36152 0.925708 0.908964   0.129779
 H 0.182672 0.374651 0.886186   0.127392
 H 0.182665 0.874655 0.88618   0.130381
 H 0.077065 0.429642 0.83403   0.12964
 H 0.077058 0.92965 0.83403   0.141601
 H 0.120447 0.451011 0.939952   0.131048
 H 0.120445 0.951013 0.939952   0.142906
 H 0.25467 0.44555 0.7815   0.273688
 H 0.254665 0.945555 0.781499   0.270198
 H 0.188077 0.522259 0.824125   0.253603
 H 0.188075 0.0 0.824126   0.241913
 H 0.208528 0.245147 0.452445   0.120233
 H 0.208537 0.745154 0.452444   0.119389
 H 0.125301 0.240213 0.358619   0.125378
 H 0.125306 0.740223 0.35862   0.126064
 H 0.139562 0.323783 0.407291   0.126117
 H 0.139572 0.823792 0.407292   0.126191
 H 0.317086 0.376311 0.385154   0.126079
 H 0.317097 0.876317 0.385152   0.126853
 H 0.423679 0.322122 0.332655   0.128842
 H 0.423686 0.822128 0.332649   0.129302
 H 0.38068 0.300377 0.43835   0.131972
 H 0.380691 0.800382 0.438345   0.131281
 H 0.246591 0.304759 0.279853   0.272941
 H 0.246595 0.804767 0.279852   0.27304
 H 0.314694 0.2285 0.321818   0.252756
 H 0.314698 0.728507 0.321816   0.252797
 H 0.706012 0.495239 0.045572   0.119105
 H 0.70602 0.995247 0.04557   0.118214
 H 0.622792 0.991039 0.139374   0.124521
 H 0.622789 0.491043 0.139378   0.125422
 H 0.638538 0.074359 0.091369   0.126838
 H 0.63853 0.574363 0.091372   0.125758
 H 0.817499 0.125359 0.11397   0.127133
 H 0.81749 0.625366 0.113969   0.125965
 H 0.92316 0.070309 0.165978   0.12946
 H 0.923154 0.570317 0.165973   0.129407
 H 0.879577 0.049012 0.060091   0.131701
 H 0.879569 0.54902 0.060088   0.132234
 H 0.745582 0.054449 0.218668   0.273792
 H 0.74558 0.554455 0.218669   0.273594
 H 0.812083 0.977731 0.17597   0.253813
 H 0.812082 0.477737 0.175969   0.254167
 H 0.791314 0.254433 0.547331   0.118728
 H 0.791312 0.754447 0.547337   0.119383
 H 0.874664 0.259449 0.641075   0.126592
 H 0.874659 0.75946 0.641082   0.125457
 H 0.8601 0.175819 0.592678   0.12652
 H 0.860101 0.675832 0.59268   0.126835
 H 0.68235 0.123601 0.615076   0.125591
 H 0.682354 0.623609 0.615073   0.127054
 H 0.575971 0.178034 0.66751   0.129759
 H 0.575973 0.678037 0.667509   0.129152
 H 0.618979 0.199522 0.561723   0.131536
 H 0.618979 0.69953 0.561724   0.131289
 H 0.753255 0.195183 0.720117   0.273659
 H 0.753254 0.695189 0.720119   0.273505
 H 0.685312 0.271456 0.678069   0.252896
 H 0.685307 0.771463 0.678074   0.252763
 C 0.822422 0.38984 0.880345   -0.138394
 C 0.822421 0.889846 0.880345   -0.140239
 C 0.845744 0.459563 0.889317   -0.034012
 C 0.845746 0.959568 0.889316   -0.036165
 C 0.793229 0.013019 0.838473   -0.133901
 C 0.793229 0.513025 0.838472   -0.13764
 C 0.716244 0.99624 0.778477   -0.010645
 C 0.716243 0.496246 0.778477   -0.010377
 C 0.691289 0.426781 0.769379   -0.14331
 C 0.691286 0.926789 0.769381   -0.143713
 C 0.744563 0.373821 0.820724   -0.023548
 C 0.744562 0.873828 0.820723   -0.026131
 C 0.884912 0.332562 0.931246   0.696821
 C 0.884915 0.832568 0.931242   0.696794
 C 0.823701 0.087049 0.845631   0.680385
 C 0.823697 0.587056 0.845633   0.681963
 C 0.61138 0.408704 0.70268   0.662154
 C 0.611382 0.90871 0.702678   0.660234
 C 0.677665 0.35957 0.380358   -0.139353
 C 0.677674 0.859573 0.380368   -0.139237
 C 0.655238 0.289745 0.389804   -0.033555
 C 0.655249 0.789748 0.389811   -0.03417
 C 0.70769 0.236101 0.338772   -0.135854
 C 0.707703 0.736105 0.338777   -0.135603
 C 0.783908 0.252773 0.27826   -0.010202
 C 0.783921 0.75278 0.278266   -0.010594
 C 0.807844 0.322351 0.268603   -0.141874
 C 0.807852 0.822359 0.26861   -0.141995
 C 0.754506 0.37552 0.320022   -0.026076
 C 0.754515 0.875525 0.320033   -0.026226
 C 0.615201 0.417045 0.431445   0.697012
 C 0.615209 0.91705 0.431453   0.696429
 C 0.677704 0.162001 0.346072   0.681829
 C 0.677712 0.662006 0.346078   0.681396
 C 0.886722 0.340304 0.201263   0.664439
 C 0.88673 0.840309 0.20127   0.663915
 C 0.177572 0.11017 0.119663   -0.132428
 C 0.177572 0.610176 0.119663   -0.139929
 C 0.154219 0.040453 0.110699   -0.037643
 C 0.154219 0.540459 0.110698   -0.03354
 C 0.206689 0.486997 0.161567   -0.136115
 C 0.20669 0.987003 0.161568   -0.134039
 C 0.283681 0.503765 0.221563   -0.009766
 C 0.28368 0.0 0.221565   -0.013751
 C 0.308684 0.073215 0.230638   -0.154634
 C 0.308684 0.573221 0.230637   -0.142764
 C 0.255465 0.126174 0.179262   -0.02657
 C 0.255465 0.62618 0.179262   -0.024808
 C 0.115098 0.167444 0.068747   0.695295
 C 0.115098 0.66745 0.068747   0.696817
 C 0.176268 0.412957 0.154391   0.680972
 C 0.176267 0.912964 0.154392   0.679991
 C 0.388632 0.091294 0.297303   0.661989
 C 0.388633 0.5913 0.297302   0.661891
 C 0.322298 0.140431 0.619623   -0.143919
 C 0.322298 0.640436 0.619625   -0.137822
 C 0.344724 0.210258 0.610195   -0.035799
 C 0.344725 0.710263 0.610196   -0.033253
 C 0.292315 0.263892 0.661267   -0.138059
 C 0.292319 0.763898 0.661267   -0.139152
 C 0.216129 0.247207 0.721798   -0.013411
 C 0.216132 0.747213 0.721799   -0.009831
 C 0.192184 0.177627 0.73143   -0.132789
 C 0.192185 0.677634 0.731432   -0.14139
 C 0.245492 0.124468 0.679981   -0.025525
 C 0.245493 0.624475 0.679984   -0.025456
 C 0.384727 0.082966 0.568494   0.6985
 C 0.384726 0.582973 0.568494   0.69598
 C 0.322321 0.337991 0.653976   0.683187
 C 0.322322 0.837997 0.653976   0.687037
 C 0.113303 0.159664 0.798761   0.662098
 C 0.113306 0.65967 0.798763   0.664078
 C 0.321344 0.478265 0.894713   -0.229143
 C 0.321342 0.978266 0.894711   -0.228831
 C 0.146233 0.428907 0.877395   -0.242464
 C 0.146228 0.928911 0.877393   -0.277945
 C 0.180644 0.27146 0.392691   -0.231065
 C 0.180651 0.771468 0.392691   -0.231321
 C 0.354583 0.322298 0.375948   -0.241731
 C 0.354592 0.822304 0.375944   -0.241447
 C 0.678731 0.021788 0.105532   -0.229818
 C 0.678726 0.521793 0.105535   -0.229638
 C 0.853912 0.071089 0.122689   -0.243016
 C 0.853904 0.571096 0.122687   -0.243007
 C 0.819181 0.228213 0.607146   -0.230824
 C 0.819179 0.728225 0.607151   -0.230935
 C 0.645048 0.177673 0.624167   -0.242289
 C 0.64505 0.67768 0.624167   -0.24231
 N 0.226923 0.471255 0.838386   -0.067561
 N 0.226919 0.971259 0.838386   -0.010703
 N 0.274814 0.279225 0.336507   -0.065607
 N 0.27482 0.779232 0.336505   -0.065571
 N 0.773257 0.02875 0.161759   -0.067838
 N 0.773252 0.528755 0.161761   -0.067855
 N 0.725027 0.220677 0.663438   -0.066148
 N 0.725026 0.720685 0.663442   -0.06619
 O 0.85221 0.271568 0.929457   -0.614402
 O 0.852208 0.771575 0.929459   -0.613202
 O 0.967534 0.349621 0.970929   -0.608949
 O 0.967532 0.849628 0.97093   -0.610395
 O 0.874634 0.100188 0.915104   -0.613167
 O 0.874637 0.600194 0.915104   -0.612464
 O 0.800668 0.129608 0.785516   -0.617539
 O 0.800672 0.629613 0.785515   -0.620111
 O 0.550949 0.461081 0.670155   -0.611033
 O 0.550947 0.961086 0.670157   -0.609137
 O 0.606253 0.34554 0.680807   -0.588341
 O 0.606248 0.845545 0.680811   -0.589283
 O 0.647549 0.478112 0.429444   -0.613971
 O 0.647549 0.978118 0.429441   -0.612826
 O 0.532909 0.400017 0.471431   -0.609997
 O 0.532909 0.900024 0.47143   -0.611046
 O 0.628461 0.148732 0.416164   -0.613282
 O 0.628457 0.648739 0.416164   -0.613967
 O 0.699248 0.119518 0.28529   -0.619263
 O 0.699243 0.619527 0.28529   -0.618157
 O 0.949101 0.288186 0.169899   -0.610569
 O 0.9491 0.78819 0.169897   -0.610322
 O 0.889281 0.40317 0.177655   -0.590526
 O 0.889278 0.903173 0.177653   -0.589931
 O 0.1478 0.228438 0.07054   -0.612533
 O 0.1478 0.728444 0.07054   -0.615107
 O 0.032474 0.150387 0.029067   -0.608781
 O 0.032474 0.650393 0.029066   -0.608571
 O 0.125344 0.39982 0.084912   -0.611725
 O 0.125343 0.899827 0.084913   -0.616076
 O 0.199307 0.370397 0.214503   -0.618819
 O 0.199306 0.870404 0.214504   -0.618546
 O 0.449064 0.038917 0.329819   -0.610085
 O 0.449065 0.538922 0.329818   -0.609564
 O 0.393794 0.154461 0.319151   -0.587906
 O 0.393795 0.654467 0.31915   -0.58977
 O 0.352452 0.021882 0.570562   -0.616739
 O 0.352452 0.521889 0.570561   -0.612314
 O 0.466921 0.10003 0.528405   -0.610804
 O 0.466915 0.600038 0.528398   -0.610364
 O 0.371601 0.351243 0.583895   -0.615049
 O 0.371596 0.851251 0.583892   -0.611486
 O 0.30075 0.380488 0.714739   -0.620346
 O 0.300748 0.880495 0.714738   -0.628993
 O 0.050907 0.211781 0.830107   -0.625993
 O 0.050906 0.711787 0.830106   -0.612176
 O 0.110746 0.096796 0.822362   -0.615652
 O 0.110745 0.596802 0.822361   -0.58847
