#{'_ref': 'TBD', '_srcid': 'CAKYAQ_clean', 'submitters': [{'name': 'Dalar Nazarian Jeff Camp and David Sholl', 'email': 'dalar@gatech.edu jcamp6@gatech.edu'}], '_method': 'VASP DFT with PBE;DDEC'}
data_ZnH4(CN)8
_symmetry_space_group_name_H-M   'P 1'
_cell_length_a   9.11900031
_cell_length_b   11.42450038
_cell_length_c   13.49400000
_cell_angle_alpha   65.13499893
_cell_angle_beta   87.83200083
_cell_angle_gamma   82.76500039
_symmetry_Int_Tables_number   1
_chemical_formula_structural   ZnH4(CN)8
_chemical_formula_sum   'Zn3 H12 C24 N24'
_cell_volume   1265.15436046
_cell_formula_units_Z   3
loop_
 _symmetry_equiv_pos_site_id
 _symmetry_equiv_pos_as_xyz
  1  'x, y, z'
loop_
 _atom_site_type_symbol
 _atom_site_fract_x
 _atom_site_fract_y
 _atom_site_fract_z
 _atom_site_charge
 Zn 0.832318 0.122772 0.002373   0.665436
 Zn 0.167606 0.878442 0.995292   0.65589
 Zn 0.5 0.0 0.998154   0.376088
 H 0.148584 0.595722 0.092096   0.095909
 H 0.71806 0.117866 0.420833   0.121335
 H 0.348694 0.326626 0.609694   0.119518
 H 0.358334 0.926442 0.386238   0.118336
 H 0.728656 0.527476 0.578734   0.121033
 H 0.761022 0.61732 0.0   0.113813
 H 0.85287 0.404708 0.0   0.021576
 H 0.278752 0.885596 0.57526   0.121781
 H 0.655154 0.672338 0.385925   0.118983
 H 0.638474 0.077052 0.609838   0.118545
 H 0.275222 0.471458 0.416889   0.119244
 H 0.240478 0.383702 0.090266   0.118752
 C 0.886242 0.746804 0.0   0.332781
 C 0.586132 0.046618 0.279795   0.345139
 C 0.582904 0.3298 0.720476   0.34431
 C 0.54313 0.02497 0.391091   -0.009237
 C 0.542996 0.41778 0.607138   -0.005562
 C 0.084538 0.555966 0.049494   -0.167259
 C 0.622296 0.066742 0.454909   -0.110619
 C 0.415096 0.402974 0.56029   -0.104553
 C 0.418888 0.959624 0.43561   -0.104956
 C 0.948646 0.622064 0.0   0.054368
 C 0.62959 0.51525 0.543134   -0.109305
 C 0.865392 0.565064 0.0   -0.105546
 C 0.113838 0.253962 0.001539   0.356684
 C 0.411506 0.956006 0.716629   0.344955
 C 0.419948 0.670036 0.275547   0.344255
 C 0.453884 0.978228 0.6051   -0.007121
 C 0.460692 0.58135 0.388559   -0.012054
 C 0.916264 0.444372 0.0   0.054894
 C 0.374548 0.936684 0.541203   -0.10924
 C 0.588774 0.595968 0.435325   -0.10471
 C 0.577948 0.043824 0.560486   -0.104064
 C 0.05141 0.378364 0.00136   -0.053132
 C 0.374296 0.483678 0.452485   -0.109231
 C 0.13545 0.435568 0.050446   -0.09307
 N 0.71131 0.317584 0.773402   -0.337063
 N 0.958662 0.841876 0.000912999999997   -0.239169
 N 0.7018 0.086458 0.132061   -0.077549
 N 0.496636 0.02422 0.213313   -0.315142
 N 0.696434 0.220774 0.872072   -0.077298
 N 0.570938 0.048966 0.122491   0.031025
 N 0.851244 0.936258 0.0   -0.106323
 N 0.721884 0.897974 0.0   0.085586
 N 0.564492 0.17741 0.877855   0.02861
 N 0.7392 0.781802 0.0   -0.285053
 N 0.71471 0.085998 0.230869   -0.336464
 N 0.491558 0.244222 0.784606   -0.31416
 N 0.291236 0.682148 0.223008   -0.329445
 N 0.041346 0.158334 0.998844   -0.243692
 N 0.296868 0.915588 0.864854   -0.072363
 N 0.501834 0.977604 0.78311   -0.314973
 N 0.304956 0.77994 0.124692   -0.08014
 N 0.428188 0.952532 0.874224   0.031121
 N 0.148752 0.064602 0.999178   -0.093788
 N 0.278176 0.103778 0.002182   0.07523
 N 0.436482 0.823964 0.118733   0.03165
 N 0.260924 0.219914 0.003928   -0.285313
 N 0.283048 0.916748 0.765866   -0.333323
 N 0.510346 0.756652 0.211523   -0.315929
