#{'_ref': 'TBD', '_srcid': 'CAKYAQ_clean', 'submitters': [{'name': 'Dalar Nazarian Jeff Camp and David Sholl', 'email': 'dalar@gatech.edu jcamp6@gatech.edu'}], '_method': 'VASP DFT with PBE;DDEC'}
data_Cd3HC5N5O
_symmetry_space_group_name_H-M   'P 1'
_cell_length_a   10.86950026
_cell_length_b   12.09600000
_cell_length_c   12.22500023
_cell_angle_alpha   90.01999845
_cell_angle_beta   107.08499953
_cell_angle_gamma   90.09599993
_symmetry_Int_Tables_number   1
_chemical_formula_structural   Cd3HC5N5O
_chemical_formula_sum   'Cd12 H4 C20 N20 O4'
_cell_volume   1536.3786677
_cell_formula_units_Z   4
loop_
 _symmetry_equiv_pos_site_id
 _symmetry_equiv_pos_as_xyz
  1  'x, y, z'
loop_
 _atom_site_type_symbol
 _atom_site_fract_x
 _atom_site_fract_y
 _atom_site_fract_z
 _atom_site_charge
 Cd 0.526306 0.651191 0.021291   0.821763
 Cd 0.31102 0.016932 0.186997   0.785113
 Cd 0.759774 0.783708 0.475703   0.949764
 Cd 0.974384 0.151299 0.979061   0.811468
 Cd 0.189506 0.516914 0.81299   0.794527
 Cd 0.740806 0.28367 0.524908   0.950861
 Cd 0.47419 0.348294 0.978905   0.829919
 Cd 0.688888 0.982601 0.812834   0.798068
 Cd 0.240478 0.216438 0.524312   0.950565
 Cd 0.025646 0.848594 0.020891   0.844692
 Cd 0.811138 0.482797 0.187325   0.785706
 Cd 0.25932 0.716292 0.475097   0.948932
 H 0.67702 0.473036 0.966809   0.458607
 H 0.823074 0.0 0.033402   0.366755
 H 0.323476 0.526424 0.033652   0.384577
 H 0.17677 0.027017 0.966468   0.457814
 C 0.6334 0.69834 0.203161   -0.078221
 C 0.273892 0.030808 0.353025   -0.057624
 C 0.469584 0.732663 0.513195   -0.091191
 C 0.378014 0.877513 0.107124   -0.124365
 C 0.570952 0.748243 0.88487   -0.070538
 C 0.867324 0.198288 0.797216   -0.060709
 C 0.225914 0.530861 0.646689   -0.050303
 C 0.030318 0.232774 0.486454   -0.09234
 C 0.12289 0.377095 0.8929   -0.136599
 C 0.929348 0.248743 0.115   -0.079472
 C 0.367308 0.301369 0.796936   -0.062905
 C 0.726064 0.969172 0.646815   -0.05096
 C 0.530498 0.267596 0.486637   -0.092135
 C 0.622138 0.122001 0.892916   -0.139822
 C 0.42951 0.251132 0.115203   -0.079706
 C 0.132712 0.801561 0.202781   -0.0844
 C 0.774948 0.469115 0.353745   -0.057646
 C 0.969962 0.767498 0.51378   -0.091087
 C 0.877722 0.62242 0.107122   -0.127405
 C 0.071012 0.750925 0.885257   -0.077068
 N 0.67824 0.741263 0.291875   -0.353123
 N 0.26029 0.050625 0.442691   -0.366994
 N 0.578546 0.731072 0.517449   -0.307756
 N 0.389112 0.799833 0.053623   -0.31496
 N 0.59697 0.819506 0.830733   -0.343102
 N 0.822398 0.241213 0.708622   -0.365234
 N 0.2391 0.550595 0.556859   -0.380425
 N 0.92123 0.230754 0.482265   -0.309071
 N 0.112428 0.299458 0.946712   -0.316672
 N 0.90301 0.320119 0.168771   -0.330768
 N 0.322376 0.258532 0.708189   -0.36354
 N 0.739764 0.949606 0.557132   -0.380584
 N 0.421516 0.269182 0.482308   -0.308424
 N 0.611408 0.199661 0.946595   -0.317742
 N 0.403426 0.179852 0.16928   -0.333393
 N 0.177498 0.758586 0.291371   -0.351362
 N 0.761758 0.449457 0.443592   -0.36732
 N 0.07866 0.768894 0.517546   -0.307225
 N 0.888244 0.700034 0.053302   -0.311564
 N 0.097618 0.679551 0.831642   -0.338851
 O 0.635304 0.472863 0.0   -0.922353
 O 0.864614 0.972865 0.972643   -0.806337
 O 0.365074 0.526634 0.972935   -0.816648
 O 0.13518 0.026861 0.0   -0.921188
