#{'_ref': 'TBD', '_srcid': 'CAKYAQ_clean', 'submitters': [{'name': 'Dalar Nazarian Jeff Camp and David Sholl', 'email': 'dalar@gatech.edu jcamp6@gatech.edu'}], '_method': 'VASP DFT with PBE;DDEC'}
data_Cd3P2H40C32N14(Cl3O2)2
_symmetry_space_group_name_H-M   'P 1'
_cell_length_a   15.49899967
_cell_length_b   15.65000014
_cell_length_c   16.80200000
_cell_angle_alpha   77.18099848
_cell_angle_beta   88.18700077
_cell_angle_gamma   62.74999957
_symmetry_Int_Tables_number   1
_chemical_formula_structural   Cd3P2H40C32N14(Cl3O2)2
_chemical_formula_sum   'Cd6 P4 H80 C64 N28 Cl12 O8'
_cell_volume   3521.34741794
_cell_formula_units_Z   2
loop_
 _symmetry_equiv_pos_site_id
 _symmetry_equiv_pos_as_xyz
  1  'x, y, z'
loop_
 _atom_site_type_symbol
 _atom_site_fract_x
 _atom_site_fract_y
 _atom_site_fract_z
 _atom_site_charge
 Cd 0.501394 0.554015 0.685992   0.8027
 Cd 0.366491 0.574671 0.480187   0.81646
 Cd 0.545952 0.426744 0.91467   0.80084
 Cd 0.498513 0.4462 0.314216   0.802334
 Cd 0.633409 0.42546 0.520028   0.816574
 Cd 0.453971 0.573395 0.085527   0.800838
 P 0.543009 0.980019 0.79281   1.462711
 P 0.977472 0.007403 0.174686   1.457486
 P 0.457187 0.019739 0.207929   1.462856
 P 0.022507 0.992667 0.825409   1.456369
 H 0.81606 0.833529 0.827213   0.137878
 H 0.911843 0.853943 0.779159   0.103187
 H 0.888218 0.758465 0.76016   0.092128
 H 0.858606 0.845615 0.604665   0.093381
 H 0.884522 0.936485 0.630801   0.098221
 H 0.769389 0.973102 0.578848   0.119026
 H 0.505327 0.230366 0.483065   0.104684
 H 0.499351 0.131296 0.451645   0.094185
 H 0.604136 0.107853 0.512475   0.11012
 H 0.340118 0.167138 0.529551   0.088179
 H 0.354496 0.268287 0.547652   0.109223
 H 0.348876 0.178378 0.632378   0.132988
 H 0.552264 0.161059 0.747955   0.159284
 H 0.565308 0.304956 0.773703   0.070347
 H 0.519497 0.238496 0.018844   0.084918
 H 0.504908 0.089367 0.004392   0.153918
 H 0.660694 0.755241 0.793754   0.173815
 H 0.651764 0.626857 0.730944   0.095483
 H 0.351498 0.757609 0.731375   0.09147
 H 0.347443 0.892055 0.793203   0.162351
 H 0.324498 0.791129 0.40222   0.089398
 H 0.230638 0.93725 0.286344   0.145576
 H 0.076211 0.784872 0.231314   0.175726
 H 0.180834 0.641802 0.345969   0.09503
 H 0.822693 0.240009 0.176299   0.169909
 H 0.921418 0.126871 0.960318   0.162172
 H 0.893876 0.0 0.458513   0.090955
 H 0.789973 0.110672 0.425698   0.091846
 H 0.899078 0.081324 0.373968   0.125714
 H 0.720952 0.958489 0.330242   0.124039
 H 0.683473 0.040487 0.397708   0.094425
 H 0.778934 0.917254 0.431493   0.086872
 H 0.89571 0.926595 0.009574   0.131399
 H 0.780951 0.933764 0.0   0.107891
 H 0.88094 0.817291 0.030471   0.093536
 H 0.748226 0.820304 0.132575   0.097227
 H 0.666299 0.948072 0.09441   0.09283
 H 0.71799 0.904712 0.197735   0.129488
 H 0.756635 0.2517 0.888659   0.077941
 H 0.662949 0.359361 0.096608   0.068164
 H 0.184165 0.166375 0.173165   0.137345
 H 0.088304 0.145993 0.221085   0.103537
 H 0.111874 0.241474 0.240145   0.092247
 H 0.141226 0.154369 0.395648   0.093021
 H 0.115396 0.063475 0.369445   0.098308
 H 0.23045 0.026882 0.42153   0.119111
 H 0.494589 0.769422 0.517579   0.104463
 H 0.500438 0.868572 0.548979   0.094051
 H 0.395744 0.8919 0.488078   0.110048
 H 0.659809 0.832753 0.471028   0.08774
 H 0.645462 0.731525 0.453054   0.108847
 H 0.651017 0.821391 0.368255   0.132942
 H 0.447798 0.838698 0.252558   0.159179
 H 0.434516 0.695022 0.226547   0.070237
 H 0.48048 0.761769 0.981479   0.084954
 H 0.495277 0.910697 0.996189   0.154199
 H 0.339472 0.244473 0.206929   0.173721
 H 0.34823 0.373172 0.269416   0.094979
 H 0.64847 0.242793 0.268793   0.091812
 H 0.652681 0.108062 0.207247   0.161761
 H 0.675427 0.209004 0.597926   0.089853
 H 0.769329 0.062833 0.713762   0.145651
 H 0.923749 0.215198 0.768839   0.175331
 H 0.819085 0.358311 0.654225   0.095208
 H 0.177352 0.760043 0.823838   0.169693
 H 0.078485 0.873235 0.039778   0.162222
 H 0.10608 0.007997 0.541628   0.087171
 H 0.210019 0.889417 0.574373   0.098925
 H 0.100956 0.918686 0.626151   0.132183
 H 0.279091 0.041487 0.669916   0.124125
 H 0.316556 0.959516 0.602429   0.0947
 H 0.221117 0.08276 0.568658   0.085806
 H 0.104242 0.073486 0.990522   0.130093
 H 0.219008 0.066284 0.015625   0.100129
 H 0.119047 0.18277 0.969632   0.092998
 H 0.251787 0.179719 0.86754   0.098195
 H 0.333694 0.051952 0.905745   0.092353
 H 0.282044 0.095282 0.802406   0.1281
 H 0.24325 0.748439 0.111489   0.077402
 H 0.33707 0.640738 0.903577   0.068549
 C 0.686737 0.950853 0.710155   0.614741
 C 0.532254 0.063341 0.645099   0.609556
 C 0.854125 0.833408 0.771361   -0.218919
 C 0.826563 0.91567 0.624642   -0.238065
 C 0.525191 0.151347 0.501577   -0.225887
 C 0.37459 0.189712 0.571558   -0.217515
 C 0.528063 0.113343 0.87516   0.399547
 C 0.545852 0.17384 0.809337   -0.33008
 C 0.552702 0.255009 0.823507   0.196782
 C 0.527386 0.217614 0.960229   0.179248
 C 0.518982 0.135237 0.952154   -0.308375
 C 0.504264 0.832362 0.796725   0.380155
 C 0.591281 0.758254 0.779411   -0.304065
 C 0.586201 0.687642 0.744692   0.183907
 C 0.418236 0.760338 0.745475   0.170184
 C 0.415914 0.834158 0.780097   -0.285381
 C 0.269213 0.792328 0.362822   0.173677
 C 0.217102 0.873433 0.299086   -0.279578
 C 0.145541 0.871834 0.252109   0.39123
 C 0.129959 0.788893 0.268394   -0.314447
 C 0.1874 0.709893 0.332468   0.193935
 C 0.882025 0.174911 0.073378   0.36891
 C 0.810233 0.240397 0.112797   -0.303556
 C 0.865101 0.177069 0.991869   -0.289704
 C 0.857077 0.000534000000002 0.275258   0.630831
 C 0.858192 0.945543 0.156338   0.625302
 C 0.852 0.051744 0.404756   -0.206572
 C 0.746054 0.980672 0.378276   -0.225543
 C 0.845034 0.89687 0.029072   -0.206032
 C 0.732 0.89579 0.135261   -0.219248
 C 0.774164 0.245896 0.952587   0.171997
 C 0.721344 0.306678 0.068269   0.194121
 C 0.313313 0.049007 0.290369   0.615457
 C 0.467711 0.93646 0.355572   0.609609
 C 0.146008 0.166519 0.228968   -0.219336
 C 0.173328 0.084302 0.37569   -0.239421
 C 0.474686 0.848445 0.499049   -0.225723
 C 0.625336 0.810096 0.429095   -0.216298
 C 0.472105 0.886529 0.125428   0.39991
 C 0.45419 0.826018 0.191142   -0.330519
 C 0.447209 0.744981 0.176823   0.197484
 C 0.472609 0.78254 0.040142   0.180576
 C 0.481136 0.864809 0.048366   -0.309942
 C 0.495914 0.167498 0.203946   0.380998
 C 0.408843 0.241598 0.221188   -0.304533
 C 0.413829 0.312389 0.255713   0.184822
 C 0.581785 0.239901 0.254821   0.169923
 C 0.584202 0.165924 0.22038   -0.284357
 C 0.730719 0.207787 0.637329   0.173225
 C 0.782852 0.126658 0.701039   -0.279486
 C 0.854421 0.128245 0.748015   0.390867
 C 0.869991 0.211193 0.731758   -0.314613
 C 0.812529 0.290215 0.667709   0.194222
 C 0.117951 0.82517 0.926733   0.369133
 C 0.189775 0.759679 0.887341   -0.303928
 C 0.134828 0.823035 0.008245   -0.289652
 C 0.142924 0.0 0.724856   0.630178
 C 0.141798 0.054506 0.843774   0.625661
 C 0.147999 0.948309 0.595357   -0.212423
 C 0.253984 0.019331 0.621868   -0.224874
 C 0.154937 0.10319 0.971038   -0.214609
 C 0.268008 0.104229 0.864871   -0.223045
 C 0.225755 0.754228 0.047557   0.173011
 C 0.278651 0.693421 0.931897   0.193656
 N 0.480035 0.050027 0.709832   -0.876673
 N 0.630414 0.016108 0.642717   -0.696611
 N 0.657564 0.927747 0.785962   -0.884505
 N 0.480151 0.131822 0.576322   -0.028557
 N 0.785105 0.904048 0.702796   -0.046493
 N 0.543775 0.27721 0.897197   -0.331718
 N 0.501456 0.688739 0.727389   -0.323033
 N 0.254693 0.711669 0.3799   -0.346212
 N 0.929925 0.026537 0.25834   -0.894899
 N 0.818844 0.965436 0.227261   -0.705216
 N 0.93848 0.953164 0.126843   -0.891476
 N 0.816811 0.014505 0.347872   -0.048944
 N 0.814031 0.913772 0.109373   -0.058988
 N 0.703162 0.309308 0.989722   -0.323856
 N 0.520033 0.949749 0.290937   -0.876295
 N 0.369529 0.983734 0.357854   -0.696906
 N 0.342609 0.072069 0.214607   -0.885326
 N 0.519767 0.867952 0.424341   -0.029146
 N 0.214922 0.095898 0.297606   -0.045801
 N 0.456129 0.722913 0.10308   -0.333047
 N 0.498522 0.311461 0.272889   -0.323343
 N 0.745225 0.288455 0.620278   -0.346683
 N 0.07005 0.973544 0.741753   -0.896038
 N 0.181163 0.034595 0.772862   -0.700811
 N 0.061496 0.046904 0.873256   -0.888133
 N 0.18321 0.985515 0.652254   -0.049965
 N 0.185961 0.08627 0.890745   -0.044657
 N 0.29679 0.690815 0.010446   -0.323579
 Cl 0.34741 0.68569 0.575921   -0.493862
 Cl 0.489015 0.423981 0.60675   -0.449732
 Cl 0.393683 0.528563 0.800788   -0.503971
 Cl 0.653111 0.424897 0.784522   -0.507603
 Cl 0.643682 0.556947 0.57638   -0.506276
 Cl 0.451803 0.419085 0.048597   -0.509707
 Cl 0.652496 0.314443 0.424298   -0.493985
 Cl 0.510896 0.576176 0.393471   -0.44951
 Cl 0.606246 0.471594 0.199406   -0.503677
 Cl 0.346786 0.57523 0.215663   -0.507653
 Cl 0.356247 0.443164 0.423858   -0.506463
 Cl 0.548146 0.581035 0.951626   -0.509675
 O 0.515888 0.032341 0.870268   -0.435627
 O 0.502886 0.902991 0.835558   -0.433648
 O 0.095544 0.953504 0.188124   -0.428951
 O 0.973118 0.106551 0.1147   -0.447435
 O 0.484511 0.967328 0.13056   -0.436889
 O 0.497476 0.096644 0.165353   -0.434396
 O 0.904437 0.046555 0.811977   -0.428257
 O 0.026869 0.893509 0.88538   -0.448181
