#{'_ref': 'TBD', '_srcid': 'CAKYAQ_clean', 'submitters': [{'name': 'Dalar Nazarian Jeff Camp and David Sholl', 'email': 'dalar@gatech.edu jcamp6@gatech.edu'}], '_method': 'VASP DFT with PBE;DDEC'}
data_Cd3H8C4(Cl3O)2
_symmetry_space_group_name_H-M   'P 1'
_cell_length_a   10.11899976
_cell_length_b   10.12349959
_cell_length_c   10.95700000
_cell_angle_alpha   79.11399754
_cell_angle_beta   78.99400207
_cell_angle_gamma   79.55800087
_symmetry_Int_Tables_number   1
_chemical_formula_structural   Cd3H8C4(Cl3O)2
_chemical_formula_sum   'Cd6 H16 C8 Cl12 O4'
_cell_volume   1069.6175894
_cell_formula_units_Z   2
loop_
 _symmetry_equiv_pos_site_id
 _symmetry_equiv_pos_as_xyz
  1  'x, y, z'
loop_
 _atom_site_type_symbol
 _atom_site_fract_x
 _atom_site_fract_y
 _atom_site_fract_z
 _atom_site_charge
 Cd 0.422962 0.894474 0.41979   0.823233
 Cd 0.105004 0.577004 0.080564   0.823237
 Cd 0.577472 0.105686 0.578936   0.824016
 Cd 0.894726 0.422762 0.919996   0.824184
 Cd 0.2425 0.75698 0.250304   0.799092
 Cd 0.757974 0.242528 0.749364   0.799375
 H 0.640146 0.630906 0.334968   0.090084
 H 0.651972 0.595996 0.500168   0.072387
 H 0.558924 0.410916 0.34974   0.061152
 H 0.715574 0.37995 0.41182   0.094959
 H 0.369844 0.360274 0.165124   0.090012
 H 0.40273 0.348658 0.999824   0.071471
 H 0.590934 0.440566 0.147774   0.059301
 H 0.620222 0.284144 0.085416   0.094678
 H 0.359878 0.369128 0.663118   0.090194
 H 0.347854 0.404038 0.497954   0.072101
 H 0.441158 0.58914 0.648202   0.061337
 H 0.284434 0.620076 0.586276   0.094986
 H 0.631214 0.639584 0.835742   0.090566
 H 0.596056 0.65204 0.000915999999997   0.072838
 H 0.411036 0.558392 0.850886   0.063195
 H 0.37998 0.715184 0.912884   0.09571
 C 0.598202 0.578482 0.427496   0.025496
 C 0.608718 0.4282 0.42518   0.030637
 C 0.421512 0.40215 0.072196   0.025614
 C 0.572298 0.391042 0.072672   0.030921
 C 0.401742 0.421532 0.570546   0.025723
 C 0.39128 0.571812 0.57283   0.029676
 C 0.578638 0.597992 0.92836   0.025925
 C 0.428264 0.608422 0.92624   0.028998
 Cl 0.471188 0.841394 0.190692   -0.420353
 Cl 0.121112 0.828546 0.05923   -0.412937
 Cl 0.530688 0.857474 0.619254   -0.442571
 Cl 0.157252 0.528722 0.309592   -0.419764
 Cl 0.171228 0.878028 0.441912   -0.41275
 Cl 0.142714 0.470266 0.879754   -0.443052
 Cl 0.528778 0.159088 0.807954   -0.420785
 Cl 0.878536 0.171224 0.940894   -0.412766
 Cl 0.469968 0.142494 0.379336   -0.441949
 Cl 0.841896 0.47132 0.690944   -0.420905
 Cl 0.829164 0.122126 0.557414   -0.412812
 Cl 0.85671 0.530304 0.11952   -0.441424
 O 0.45594 0.639012 0.45324   -0.321491
 O 0.361186 0.544434 0.047408   -0.323507
 O 0.54398 0.361004 0.544696   -0.322442
 O 0.639154 0.45589 0.954152   -0.321587
