#{'_ref': 'TBD', '_srcid': 'CAKYAQ_clean', 'submitters': [{'name': 'Dalar Nazarian Jeff Camp and David Sholl', 'email': 'dalar@gatech.edu jcamp6@gatech.edu'}], '_method': 'VASP DFT with PBE;DDEC'}
data_CdH18C18(NO)4
_symmetry_space_group_name_H-M   'P 1'
_cell_length_a   12.48549967
_cell_length_b   13.97700014
_cell_length_c   15.98025918
_cell_angle_alpha   94.17358714
_cell_angle_beta   112.95659750
_cell_angle_gamma   90.10399965
_symmetry_Int_Tables_number   1
_chemical_formula_structural   CdH18C18(NO)4
_chemical_formula_sum   'Cd4 H72 C72 N16 O16'
_cell_volume   2559.65307416
_cell_formula_units_Z   4
loop_
 _symmetry_equiv_pos_site_id
 _symmetry_equiv_pos_as_xyz
  1  'x, y, z'
loop_
 _atom_site_type_symbol
 _atom_site_fract_x
 _atom_site_fract_y
 _atom_site_fract_z
 _atom_site_charge
 Cd 0.995092 0.632461 0.549364   0.960883
 Cd 0.445804 0.867496 0.450284   0.961245
 Cd 0.004882 0.367496 0.450606   0.960783
 Cd 0.554169 0.132454 0.549685   0.961093
 H 0.056147 0.603233 0.761561   0.102204
 H 0.225231 0.604437 0.913735   0.125457
 H 0.452072 0.616823 0.768282   0.12947
 H 0.276314 0.611599 0.624632   0.100567
 H 0.641134 0.629179 0.009712   0.140117
 H 0.58221 0.694362 0.910098   0.14407
 H 0.589134 0.567543 0.8988   0.142014
 H 0.327035 0.623948 0.108751   0.141684
 H 0.385774 0.69374 0.21631   0.153316
 H 0.388535 0.568277 0.214435   0.15005
 H 0.531475 0.649017 0.351983   0.146246
 H 0.715856 0.655907 0.488718   0.118047
 H 0.915282 0.644988 0.333408   0.086141
 H 0.737872 0.634431 0.187748   0.114893
 H 0.812689 0.816661 0.717557   0.100887
 H 0.946477 0.882311 0.749249   0.100885
 H 0.809022 0.9964 0.668168   0.125703
 H 0.861559 0.945895 0.588259   0.135485
 H 0.295705 0.897122 0.238665   0.102069
 H 0.312521 0.895853 0.086377   0.125744
 H 0.684544 0.882813 0.231378   0.129578
 H 0.652556 0.887868 0.375158   0.100392
 H 0.631864 0.871383 0.989762   0.140026
 H 0.672781 0.806171 0.089369   0.143637
 H 0.690893 0.93303 0.100649   0.142013
 H 0.218886 0.875597 0.891462   0.141307
 H 0.169743 0.805776 0.783935   0.152603
 H 0.174664 0.931252 0.785742   0.149936
 H 0.179634 0.850533 0.647996   0.145997
 H 0.22705 0.843482 0.511078   0.118756
 H 0.581721 0.854823 0.665947   0.085858
 H 0.550204 0.865478 0.811766   0.115129
 H 0.094751 0.683229 0.281827   0.10149
 H 0.19667 0.617645 0.250104   0.101232
 H 0.139801 0.503633 0.331377   0.125281
 H 0.272501 0.554047 0.410997   0.135013
 H 0.943824 0.396753 0.23841   0.102285
 H 0.774735 0.39554 0.086237   0.125546
 H 0.547903 0.383092 0.231693   0.129479
 H 0.723665 0.38833 0.375341   0.100691
 H 0.358848 0.370757 0.990288   0.140099
 H 0.417776 0.305547 0.089866   0.144099
 H 0.410833 0.432362 0.101193   0.142162
 H 0.672933 0.375951 0.891225   0.141614
 H 0.614176 0.306143 0.783676   0.153249
 H 0.611454 0.431605 0.78553   0.150315
 H 0.468493 0.35091 0.647993   0.146156
 H 0.284112 0.344035 0.511258   0.118031
 H 0.084684 0.354997 0.666566   0.086005
 H 0.262095 0.365538 0.812227   0.115032
 H 0.187277 0.183279 0.282417   0.100937
 H 0.053489 0.117632 0.250731   0.100888
 H 0.19094 0.003543 0.331816   0.125671
 H 0.13841 0.054059 0.411726   0.135499
 H 0.704266 0.102764 0.7613   0.102374
 H 0.687447 0.104022 0.913587   0.125567
 H 0.315435 0.117154 0.768593   0.129453
 H 0.347423 0.112104 0.624813   0.100437
 H 0.368124 0.128528 0.010226   0.140001
 H 0.32721 0.193765 0.910622   0.143534
 H 0.309071 0.066908 0.899305   0.141833
 H 0.781088 0.124358 0.108506   0.141372
 H 0.830205 0.194202 0.216019   0.15252
 H 0.825336 0.068726 0.21424   0.149841
 H 0.820336 0.149426 0.351972   0.145901
 H 0.772921 0.156478 0.488889   0.118696
 H 0.418248 0.145085 0.334016   0.085858
 H 0.449768 0.134427 0.188198   0.115187
 H 0.905219 0.316731 0.718135   0.101211
 H 0.803295 0.382311 0.749857   0.101161
 H 0.860153 0.496326 0.668579   0.12539
 H 0.727456 0.4459 0.58896   0.135061
 C 0.14608 0.603909 0.767162   0.11731
 C 0.239325 0.605486 0.850765   -0.163444
 C 0.353679 0.611326 0.854551   0.04949
 C 0.366621 0.61228 0.771179   -0.18993
 C 0.268489 0.609729 0.690095   0.142411
 C 0.455766 0.618923 0.94235   0.321219
 C 0.574502 0.627945 0.940616   -0.453777
 C 0.396265 0.629205 0.176991   -0.471783
 C 0.513049 0.631983 0.171273   0.317651
 C 0.619055 0.639151 0.256609   0.029784
 C 0.613733 0.645748 0.343031   -0.186754
 C 0.717077 0.649675 0.420719   0.149691
 C 0.828184 0.644134 0.333686   0.131174
 C 0.73009 0.63935 0.253356   -0.187911
 C 0.918709 0.770728 0.644959   0.677141
 C 0.871223 0.849783 0.690711   -0.259962
 C 0.810955 0.929094 0.628837   -0.297565
 C 0.687383 0.902139 0.562633   0.670702
 C 0.379967 0.896256 0.232937   0.118965
 C 0.389548 0.894654 0.149276   -0.164312
 C 0.499995 0.888647 0.145321   0.049569
 C 0.596285 0.887508 0.228611   -0.189679
 C 0.579304 0.890013 0.309772   0.14211
 C 0.514102 0.881094 0.057422   0.321279
 C 0.634455 0.872499 0.058905   -0.453218
 C 0.219724 0.870368 0.823146   -0.470368
 C 0.342103 0.867711 0.828609   0.316283
 C 0.362591 0.860555 0.743163   0.030096
 C 0.270797 0.85385 0.656815   -0.186898
 C 0.296315 0.849837 0.579017   0.148711
 C 0.494416 0.855592 0.665802   0.131929
 C 0.476785 0.860461 0.746227   -0.18831
 C 0.273435 0.729298 0.354351   0.678202
 C 0.180006 0.650195 0.308642   -0.262301
 C 0.181426 0.570943 0.370622   -0.296236
 C 0.124456 0.597933 0.43708   0.671409
 C 0.853892 0.396064 0.23281   0.117108
 C 0.760643 0.394479 0.149207   -0.163601
 C 0.646291 0.388617 0.145423   0.049587
 C 0.633353 0.38765 0.228795   -0.18976
 C 0.731487 0.390211 0.309879   0.141976
 C 0.544204 0.381016 0.057626   0.321424
 C 0.42547 0.371977 0.059362   -0.454002
 C 0.603703 0.370694 0.822985   -0.471902
 C 0.486916 0.36795 0.828702   0.317688
 C 0.38091 0.360794 0.743366   0.029772
 C 0.386235 0.35419 0.656945   -0.186593
 C 0.282891 0.350272 0.579257   0.149653
 C 0.171784 0.355837 0.666288   0.131647
 C 0.269877 0.360611 0.746619   -0.188183
 C 0.08126 0.229223 0.355016   0.677
 C 0.128746 0.150162 0.309268   -0.260259
 C 0.189013 0.070852 0.371145   -0.297297
 C 0.312588 0.097808 0.437344   0.670062
 C 0.620004 0.103648 0.767028   0.118373
 C 0.610423 0.105244 0.850689   -0.164221
 C 0.499978 0.111275 0.854646   0.049725
 C 0.403692 0.112441 0.771358   -0.189595
 C 0.420671 0.109938 0.690197   0.141989
 C 0.485871 0.118826 0.942545   0.321146
 C 0.365519 0.127424 0.941065   -0.452869
 C 0.78025 0.129593 0.176822   -0.470181
 C 0.657871 0.132226 0.171359   0.315951
 C 0.637381 0.139379 0.256803   0.030378
 C 0.729174 0.146098 0.343152   -0.186823
 C 0.703653 0.150112 0.420949   0.148798
 C 0.505555 0.144328 0.334163   0.132405
 C 0.523186 0.139458 0.253738   -0.18872
 C 0.726534 0.27066 0.645612   0.6778
 C 0.819961 0.349762 0.691321   -0.26157
 C 0.818535 0.429014 0.629337   -0.296694
 C 0.875505 0.402023 0.562881   0.671407
 N 0.159647 0.606778 0.687471   -0.319031
 N 0.433556 0.619216 0.015926   -0.253758
 N 0.532051 0.627995 0.096155   -0.251096
 N 0.822718 0.648038 0.416564   -0.30044
 N 0.473172 0.893173 0.312546   -0.319353
 N 0.418244 0.880526 0.98396   -0.25333
 N 0.436285 0.871779 0.903617   -0.250711
 N 0.406041 0.851485 0.582991   -0.300574
 N 0.840329 0.393189 0.312501   -0.318798
 N 0.566411 0.380722 0.984049   -0.253868
 N 0.467915 0.371953 0.903821   -0.251118
 N 0.177251 0.351928 0.583411   -0.300755
 N 0.526801 0.106754 0.687421   -0.318975
 N 0.581731 0.119399 0.016007   -0.253383
 N 0.563688 0.128146 0.09635   -0.250429
 N 0.593928 0.148452 0.416974   -0.300859
 O 0.981106 0.796137 0.60264   -0.62709
 O 0.897415 0.683216 0.652141   -0.635807
 O 0.655123 0.815319 0.538193   -0.579292
 O 0.616261 0.970289 0.532231   -0.647272
 O 0.378029 0.703908 0.396493   -0.627471
 O 0.245268 0.816804 0.347374   -0.635978
 O 0.115963 0.684784 0.460839   -0.578911
 O 0.08483 0.529733 0.468448   -0.647968
 O 0.018873 0.203821 0.397343   -0.626997
 O 0.102547 0.316735 0.347823   -0.635651
 O 0.344844 0.184627 0.461788   -0.578922
 O 0.383714 0.02966 0.467738   -0.646948
 O 0.621941 0.296051 0.603469   -0.627371
 O 0.754702 0.183155 0.652594   -0.635785
 O 0.883983 0.315172 0.539111   -0.578562
 O 0.915146 0.470224 0.531524   -0.648245
