#{'_ref': 'TBD', '_srcid': 'CAKYAQ_clean', 'submitters': [{'name': 'Dalar Nazarian Jeff Camp and David Sholl', 'email': 'dalar@gatech.edu jcamp6@gatech.edu'}], '_method': 'VASP DFT with PBE;DDEC'}
data_CuH2CN2Cl
_symmetry_space_group_name_H-M   'P 1'
_cell_length_a   4.48400010
_cell_length_b   15.78500000
_cell_length_c   17.26099966
_cell_angle_alpha   90.07699963
_cell_angle_beta   90.33500062
_cell_angle_gamma   90.01199838
_symmetry_Int_Tables_number   1
_chemical_formula_structural   CuH2CN2Cl
_chemical_formula_sum   'Cu12 H24 C12 N24 Cl12'
_cell_volume   1221.71053178
_cell_formula_units_Z   12
loop_
 _symmetry_equiv_pos_site_id
 _symmetry_equiv_pos_as_xyz
  1  'x, y, z'
loop_
 _atom_site_type_symbol
 _atom_site_fract_x
 _atom_site_fract_y
 _atom_site_fract_z
 _atom_site_charge
 Cu 0.925916 0.848163 0.800383   0.426521
 Cu 0.177164 0.844526 0.002985   0.430418
 Cu 0.473364 0.647736 0.903369   0.435381
 Cu 0.062232 0.348305 0.20001   0.422696
 Cu 0.810822 0.34458 0.0   0.427046
 Cu 0.514 0.147552 0.096942   0.434674
 Cu 0.56243 0.848383 0.299996   0.426998
 Cu 0.312602 0.84479 0.500637   0.427349
 Cu 0.013206 0.64746 0.403043   0.433759
 Cu 0.425404 0.348397 0.70034   0.422689
 Cu 0.675006 0.34465 0.499792   0.427325
 Cu 0.974258 0.147599 0.599432   0.433943
 H 0.579616 0.763338 0.715002   0.315635
 H 0.390622 0.762511 0.623856   0.324661
 H 0.167626 0.08403 0.725407   0.313948
 H 0.148298 0.0 0.786335   0.332113
 H 0.442182 0.996254 0.463847   0.315915
 H 0.641432 0.08825 0.494866   0.316418
 H 0.406986 0.263202 0.285625   0.31601
 H 0.595158 0.262402 0.376899   0.325328
 H 0.822892 0.584584 0.275727   0.320436
 H 0.84197 0.493641 0.214498   0.317774
 H 0.545022 0.495993 0.537474   0.316928
 H 0.345804 0.588018 0.506745   0.316292
 H 0.910954 0.76396 0.216152   0.315644
 H 0.100218 0.763097 0.12566   0.324906
 H 0.322788 0.084764 0.223848   0.315111
 H 0.34273 0.0 0.285124   0.33037
 H 0.045686 0.995591 0.964317   0.316121
 H 0.845706 0.087593 0.994275   0.315878
 H 0.079398 0.263427 0.784792   0.314892
 H 0.89057 0.262742 0.875336   0.325252
 H 0.661988 0.585087 0.776478   0.31981
 H 0.64261 0.494147 0.715198   0.31683
 H 0.943024 0.49586 0.036516   0.316013
 H 0.142242 0.587933 0.006484   0.316436
 C 0.899578 0.987437 0.686798   0.752804
 C 0.620906 0.870613 0.649756   0.747809
 C 0.645504 0.988141 0.569839   0.744348
 C 0.089126 0.487652 0.314238   0.748496
 C 0.366482 0.370633 0.351005   0.749403
 C 0.342122 0.488073 0.431362   0.743907
 C 0.590062 0.987934 0.186201   0.752164
 C 0.869506 0.871111 0.150585   0.747906
 C 0.843534 0.988129 0.069934   0.743296
 C 0.396092 0.488075 0.814247   0.748107
 C 0.118746 0.371029 0.850074   0.749083
 C 0.14398 0.488316 0.930726   0.743617
 N 0.824886 0.030253 0.621061   -0.654899
 N 0.512206 0.793751 0.665403   -0.666995
 N 0.800182 0.908048 0.703912   -0.655111
 N 0.543552 0.9076 0.581157   -0.663342
 N 0.079944 0.02562 0.73804   -0.666169
 N 0.562708 0.028305 0.505212   -0.663599
 N 0.16287 0.530279 0.380288   -0.654315
 N 0.474302 0.293642 0.335302   -0.670071
 N 0.188046 0.408215 0.296864   -0.656225
 N 0.44408 0.407577 0.419714   -0.664056
 N 0.910132 0.526115 0.26296   -0.657317
 N 0.424782 0.528138 0.496174   -0.664657
 N 0.663796 0.030387 0.120389   -0.655001
 N 0.979516 0.794477 0.166911   -0.66902
 N 0.689644 0.908637 0.203959   -0.654541
 N 0.946736 0.907826 0.082088   -0.664211
 N 0.410454 0.026378 0.236869   -0.664448
 N 0.925754 0.027892 0.00529   -0.663977
 N 0.322846 0.530607 0.880152   -0.654131
 N 0.010084 0.294137 0.833928   -0.668839
 N 0.297412 0.408616 0.796551   -0.65464
 N 0.041298 0.40791 0.918575   -0.664161
 N 0.57431 0.526665 0.763399   -0.656832
 N 0.062308 0.528176 0.995467   -0.664911
 Cl 0.828052 0.708157 0.824831   -0.505048
 Cl 0.282924 0.901151 0.883152   -0.492235
 Cl 0.40254 0.716876 0.018425   -0.485357
 Cl 0.1594 0.208167 0.175621   -0.504754
 Cl 0.705654 0.401524 0.117488   -0.48263
 Cl 0.58645 0.216713 0.982234   -0.48566
 Cl 0.657134 0.708009 0.323891   -0.504496
 Cl 0.204734 0.901721 0.381256   -0.490659
 Cl 0.086718 0.717364 0.517539   -0.483815
 Cl 0.334058 0.207668 0.677423   -0.501958
 Cl 0.783454 0.401823 0.619429   -0.48439
 Cl 0.899452 0.216938 0.484415   -0.485989
