#{'_ref': 'TBD', '_srcid': 'CAKYAQ_clean', 'submitters': [{'name': 'Dalar Nazarian Jeff Camp and David Sholl', 'email': 'dalar@gatech.edu jcamp6@gatech.edu'}], '_method': 'VASP DFT with PBE;DDEC'}
data_YC2O5
_symmetry_space_group_name_H-M   'P 1'
_cell_length_a   6.47900000
_cell_length_b   8.97649354
_cell_length_c   9.42150000
_cell_angle_alpha   90.00128296
_cell_angle_beta   90.00099929
_cell_angle_gamma   110.89843300
_symmetry_Int_Tables_number   1
_chemical_formula_structural   YC2O5
_chemical_formula_sum   'Y4 C8 O20'
_cell_volume   511.89540748
_cell_formula_units_Z   4
loop_
 _symmetry_equiv_pos_site_id
 _symmetry_equiv_pos_as_xyz
  1  'x, y, z'
loop_
 _atom_site_type_symbol
 _atom_site_fract_x
 _atom_site_fract_y
 _atom_site_fract_z
 _atom_site_charge
 Y 0.321596 0.645808 0.249926   1.99702
 Y 0.67738 0.35406 0.249988   1.995433
 Y 0.677388 0.354062 0.750006   1.995459
 Y 0.321604 0.64581 0.750078   1.996788
 C 0.614172 0.99943 0.273054   0.552041
 C 0.469168 0.408252 0.499998   1.021563
 C 0.38381 0.000565999999999 0.773128   0.548963
 C 0.530606 0.591354 1.19999999981e-05   1.023136
 C 0.383826 0.000576000000002 0.226862   0.548829
 C 0.939468 0.408194 0.99999   1.021757
 C 0.614146 0.999414 0.72693   0.551802
 C 0.059532 0.591774 0.500002   1.020705
 O 0.629526 0.863842 0.28987   -0.587916
 O 0.765522 0.13415 0.289726   -0.586709
 O 0.427424 0.458288 0.378242   -0.803944
 O 0.571402 0.307728 0.499994   -0.786914
 O 0.427432 0.45829 0.621756   -0.803921
 O 0.368544 0.136202 0.789942   -0.5864
 O 0.232574 0.865784 0.789812   -0.586386
 O 0.572536 0.541912 0.878286   -0.803096
 O 0.428126 0.691772 8.0000000011e-06   -0.789671
 O 0.572524 0.54191 0.121726   -0.803089
 O 0.232554 0.865776 0.210194   -0.586619
 O 0.368532 0.136198 0.210054   -0.586228
 O 0.030452 0.457998 0.121738   -0.803665
 O 0.737852 0.307698 0.999986   -0.787607
 O 0.030454 0.458002 0.878268   -0.803548
 O 0.76552 0.13415 0.710244   -0.586814
 O 0.629526 0.863842 0.710104   -0.587699
 O 0.968548 0.541976 0.621762   -0.802633
 O 0.261116 0.692308 0.499998   -0.787963
 O 0.96853 0.54197 0.378242   -0.802674
