#{'_ref': 'TBD', '_srcid': 'CAKYAQ_clean', 'submitters': [{'name': 'Dalar Nazarian Jeff Camp and David Sholl', 'email': 'dalar@gatech.edu jcamp6@gatech.edu'}], '_method': 'VASP DFT with PBE;DDEC'}
data_CdH16(C7O)4
_symmetry_space_group_name_H-M   'P 1'
_cell_length_a   10.88100059
_cell_length_b   14.80699981
_cell_length_c   17.42500000
_cell_angle_alpha   92.77199992
_cell_angle_beta   108.15900104
_cell_angle_gamma   90.03500075
_symmetry_Int_Tables_number   1
_chemical_formula_structural   CdH16(C7O)4
_chemical_formula_sum   'Cd4 H64 C112 O16'
_cell_volume   2664.12010739
_cell_formula_units_Z   4
loop_
 _symmetry_equiv_pos_site_id
 _symmetry_equiv_pos_as_xyz
  1  'x, y, z'
loop_
 _atom_site_type_symbol
 _atom_site_fract_x
 _atom_site_fract_y
 _atom_site_fract_z
 _atom_site_charge
 Cd 0.571992 0.12524 0.999646   1.158748
 Cd 0.571996 0.625259 0.999645   1.158696
 Cd 0.430174 0.375388 0.999699   1.158242
 Cd 0.430176 0.875409 0.999696   1.158206
 H 0.552752 0.347076 0.224179   0.11155
 H 0.55275 0.847101 0.224177   0.111723
 H 0.665432 0.428475 0.355374   0.118143
 H 0.66543 0.928498 0.355372   0.118429
 H 0.030208 0.384259 0.313572   0.104705
 H 0.030206 0.884282 0.313571   0.10401
 H 0.917692 0.299435 0.183825   0.115947
 H 0.917692 0.799461 0.183823   0.115986
 H 0.817966 0.297644 0.438195   0.097754
 H 0.81796 0.797663 0.438195   0.097669
 H 0.828242 0.226616 0.564545   0.093318
 H 0.828238 0.726636 0.564547   0.092979
 H 0.953766 0.301623 0.697907   0.100936
 H 0.95376 0.801644 0.697909   0.100971
 H 0.931664 0.054189 0.296412   0.107465
 H 0.931662 0.554209 0.296412   0.108351
 H 0.329088 0.403761 0.775585   0.111742
 H 0.329088 0.903786 0.775584   0.111834
 H 0.310142 0.321952 0.644469   0.117418
 H 0.31014 0.821978 0.644468   0.117208
 H 0.717444 0.365254 0.685541   0.104539
 H 0.717442 0.865279 0.68554   0.104529
 H 0.734396 0.450736 0.815539   0.114953
 H 0.734394 0.95076 0.815539   0.115022
 H 0.379366 0.452156 0.561425   0.096963
 H 0.379364 0.952181 0.561424   0.09986
 H 0.26312 0.522904 0.435037   0.092963
 H 0.26312 0.0 0.435037   0.062563
 H 0.25539 0.447841 0.301694   0.100767
 H 0.255388 0.947866 0.301694   0.10371
 H 0.635154 0.196017 0.70335   0.108857
 H 0.635154 0.696042 0.703349   0.108996
 H 0.448248 0.152982 0.774699   0.110818
 H 0.448246 0.653007 0.774696   0.110836
 H 0.334608 0.071417 0.643718   0.117249
 H 0.334608 0.57144 0.643716   0.118194
 H 0.96877 0.115399 0.686136   0.104357
 H 0.968768 0.615421 0.686135   0.104249
 H 0.084304 0.201112 0.816216   0.1149
 H 0.084302 0.701138 0.816214   0.115003
 H 0.182 0.202458 0.56136   0.096835
 H 0.181996 0.702477 0.56136   0.097896
 H 0.171434 0.273226 0.434858   0.091674
 H 0.17143 0.773246 0.43486   0.091048
 H 0.045742 0.197995 0.301639   0.099842
 H 0.045736 0.698016 0.301641   0.100773
 H 0.06879 0.446203 0.703689   0.110062
 H 0.068788 0.946223 0.703689   0.110104
 H 0.672384 0.097206 0.224332   0.110632
 H 0.672384 0.59723 0.224332   0.110667
 H 0.690228 0.178665 0.355436   0.11705
 H 0.690228 0.67869 0.355434   0.11724
 H 0.28296 0.134169 0.31354   0.105648
 H 0.282958 0.634193 0.313539   0.104069
 H 0.267146 0.048913 0.183611   0.114583
 H 0.267144 0.548936 0.183611   0.114862
 H 0.620154 0.047622 0.43802   0.09768
 H 0.620152 0.547647 0.43802   0.097958
 H 0.736314 0.976826 0.564409   0.093374
 H 0.736316 0.476852 0.564409   0.093319
 H 0.74416 0.05194 0.697753   0.100753
 H 0.74416 0.551966 0.697753   0.100816
 H 0.364566 0.303815 0.296113   0.108703
 H 0.364566 0.803841 0.296112   0.107514
 C 0.662968 0.260387 0.121997   0.655037
 C 0.662966 0.760407 0.121996   0.655068
 C 0.728332 0.317923 0.195946   -0.117986
 C 0.72833 0.817946 0.195944   -0.118064
 C 0.657548 0.355727 0.244029   -0.038111
 C 0.657546 0.855751 0.244026   -0.038162
 C 0.721272 0.40131 0.317617   -0.167703
 C 0.72127 0.90133 0.317617   -0.167821
 C 0.856576 0.411866 0.344039   0.108552
 C 0.856574 0.911886 0.344039   0.10857
 C 0.92621 0.37652 0.293967   -0.154236
 C 0.926208 0.876541 0.293966   -0.154423
 C 0.863316 0.329244 0.221394   -0.05291
 C 0.863314 0.829268 0.221392   -0.052465
 C 0.92755 0.457561 0.423602   -0.045236
 C 0.927548 0.957578 0.423602   -0.04786
 C 0.993316 0.040696 0.426571   0.033108
 C 0.993312 0.540715 0.426571   0.028939
 C 0.933164 0.416325 0.496166   0.03146
 C 0.933166 0.916341 0.496166   0.031123
 C 0.870488 0.331386 0.496008   -0.125891
 C 0.870482 0.831405 0.496009   -0.125196
 C 0.876476 0.291567 0.566561   -0.076804
 C 0.876474 0.791586 0.566562   -0.076316
 C 0.947676 0.334093 0.64212   -0.091899
 C 0.94767 0.834113 0.642121   -0.092108
 C 0.988212 0.085238 0.354662   -0.134592
 C 0.988208 0.585257 0.354662   -0.134634
 C 0.541568 0.490018 0.877537   0.655015
 C 0.541566 0.990043 0.877534   0.655093
 C 0.5329 0.432565 0.803566   -0.117751
 C 0.532902 0.932588 0.803566   -0.117741
 C 0.41391 0.394856 0.75563   -0.037975
 C 0.41391 0.89488 0.75563   -0.037914
 C 0.40381 0.349098 0.682093   -0.167147
 C 0.403808 0.849123 0.682092   -0.167482
 C 0.512624 0.338257 0.65562   0.109998
 C 0.51262 0.838283 0.655618   0.109868
 C 0.63243 0.373578 0.705517   -0.156041
 C 0.63243 0.873601 0.705516   -0.156374
 C 0.642356 0.420999 0.778065   -0.050739
 C 0.642354 0.921022 0.778064   -0.050707
 C 0.503826 0.292459 0.576081   -0.048342
 C 0.503828 0.792485 0.57608   -0.046187
 C 0.566632 0.209358 0.573175   0.03092
 C 0.56663 0.709384 0.573175   0.029703
 C 0.43674 0.33353 0.503496   0.031834
 C 0.436738 0.833555 0.503496   0.032993
 C 0.374118 0.418374 0.503627   -0.123668
 C 0.374118 0.9184 0.503627   -0.152536
 C 0.309458 0.458036 0.433049   -0.077953
 C 0.309456 0.958061 0.433048   0.004261
 C 0.305154 0.415475 0.3575   -0.090722
 C 0.305154 0.915501 0.3575   -0.124067
 C 0.63348 0.164939 0.645106   -0.135186
 C 0.633478 0.664964 0.645105   -0.135018
 C 0.339372 0.239793 0.877297   0.656401
 C 0.33937 0.739812 0.877297   0.656279
 C 0.273192 0.182397 0.803432   -0.120335
 C 0.273192 0.68242 0.80343   -0.120224
 C 0.343454 0.144399 0.755118   -0.034931
 C 0.343452 0.644422 0.755116   -0.03523
 C 0.279218 0.098749 0.681683   -0.169278
 C 0.279216 0.59877 0.681682   -0.169275
 C 0.143916 0.088296 0.65569   0.111108
 C 0.143914 0.588316 0.65569   0.111172
 C 0.074792 0.123825 0.705988   -0.158344
 C 0.074792 0.623848 0.705987   -0.158326
 C 0.138224 0.171172 0.778428   -0.048481
 C 0.138224 0.671195 0.778427   -0.048751
 C 0.072582 0.042555 0.576257   -0.048892
 C 0.072578 0.542574 0.576257   -0.046176
 C 0.006826 0.459471 0.573498   0.029143
 C 0.006816 0.959492 0.573498   0.02875
 C 0.066748 0.083698 0.503619   0.035947
 C 0.066748 0.583716 0.503619   0.032101
 C 0.12939 0.16861 0.503614   -0.122825
 C 0.129386 0.66863 0.503614   -0.125588
 C 0.123236 0.208288 0.432973   -0.076199
 C 0.123232 0.708308 0.432974   -0.077025
 C 0.051942 0.165632 0.357494   -0.088546
 C 0.05194 0.665651 0.357495   -0.090553
 C 0.01213 0.415064 0.645506   -0.136464
 C 0.012128 0.915082 0.645506   -0.136278
 C 0.460518 0.010307 0.122043   0.65614
 C 0.460518 0.510329 0.122042   0.655688
 C 0.46865 0.067782 0.195937   -0.120112
 C 0.46865 0.567805 0.195936   -0.119911
 C 0.587314 0.105756 0.244091   -0.03665
 C 0.587314 0.605781 0.244091   -0.036273
 C 0.596792 0.151352 0.317613   -0.166684
 C 0.596792 0.651376 0.317613   -0.167055
 C 0.487696 0.161753 0.343866   0.109163
 C 0.487692 0.661778 0.343865   0.108929
 C 0.368204 0.126181 0.293749   -0.156757
 C 0.368202 0.626205 0.293747   -0.154956
 C 0.358914 0.078893 0.221235   -0.0491
 C 0.358914 0.578916 0.221234   -0.0495
 C 0.49599 0.207421 0.423384   -0.046117
 C 0.495994 0.707448 0.423383   -0.046711
 C 0.433056 0.29047 0.426284   0.029783
 C 0.433056 0.790495 0.426284   0.028134
 C 0.562918 0.16629 0.495964   0.03155
 C 0.562914 0.666314 0.495964   0.032313
 C 0.625452 0.081412 0.495824   -0.128349
 C 0.625454 0.581438 0.495823   -0.125382
 C 0.69006 0.041726 0.5664   -0.076713
 C 0.69006 0.541752 0.566399   -0.076488
 C 0.694428 0.084313 0.641949   -0.091642
 C 0.694428 0.584339 0.641949   -0.091842
 C 0.366194 0.334883 0.354351   -0.135483
 C 0.366194 0.834909 0.354351   -0.130651
 O 0.730706 0.203074 0.09651   -0.577133
 O 0.730706 0.703094 0.09651   -0.577041
 O 0.539864 0.265366 0.087456   -0.67145
 O 0.539862 0.765386 0.087454   -0.671428
 O 0.635082 0.047071 0.903349   -0.57724
 O 0.635074 0.547088 0.903346   -0.577372
 O 0.45243 0.485258 0.911697   -0.671589
 O 0.45243 0.985282 0.911697   -0.671766
 O 0.272036 0.296933 0.903389   -0.578608
 O 0.272036 0.796954 0.903389   -0.57858
 O 0.462606 0.23483 0.910973   -0.671393
 O 0.462606 0.734851 0.910971   -0.671257
 O 0.367376 0.452943 0.096386   -0.577833
 O 0.367372 0.952959 0.096384   -0.577842
 O 0.549432 0.015382 0.087746   -0.672177
 O 0.549432 0.515401 0.087747   -0.671828
