#{'_ref': 'TBD', '_srcid': 'CAKYAQ_clean', 'submitters': [{'name': 'Dalar Nazarian Jeff Camp and David Sholl', 'email': 'dalar@gatech.edu jcamp6@gatech.edu'}], '_method': 'VASP DFT with PBE;DDEC'}
data_ZnH8C19(NO3)2
_symmetry_space_group_name_H-M   'P 1'
_cell_length_a   5.67349983
_cell_length_b   20.13499996
_cell_length_c   24.81700000
_cell_angle_alpha   90.01899995
_cell_angle_beta   90.04600023
_cell_angle_gamma   96.21099978
_symmetry_Int_Tables_number   1
_chemical_formula_structural   ZnH8C19(NO3)2
_chemical_formula_sum   'Zn4 H32 C76 N8 O24'
_cell_volume   2818.35083187
_cell_formula_units_Z   4
loop_
 _symmetry_equiv_pos_site_id
 _symmetry_equiv_pos_as_xyz
  1  'x, y, z'
loop_
 _atom_site_type_symbol
 _atom_site_fract_x
 _atom_site_fract_y
 _atom_site_fract_z
 _atom_site_charge
 Zn 0.101354 0.55537 0.465158   0.908376
 Zn 0.898674 0.94458 0.965136   0.90734
 Zn 0.898588 0.444615 0.534835   0.90832
 Zn 0.101268 0.055405 0.034857   0.90706
 H 0.468474 0.916715 0.890064   0.108664
 H 0.37709 0.843999 0.808755   0.166038
 H 0.006648 0.748725 0.844016   0.168774
 H 0.07204 0.824602 0.924155   0.106739
 H 0.112212 0.604906 0.752135   0.118132
 H 0.052064 0.534018 0.668987   0.131179
 H 0.055274 0.695223 0.5634   0.1333
 H 0.095018 0.769677 0.644822   0.119051
 H 0.529314 0.581683 0.389392   0.106958
 H 0.62043 0.65363 0.307686   0.165593
 H 0.99162 0.749445 0.342323   0.167647
 H 0.92634 0.674287 0.422816   0.107035
 H 0.887502 0.893262 0.252624   0.118719
 H 0.948818 0.965263 0.170165   0.131254
 H 0.946046 0.805778 0.062514   0.133397
 H 0.905718 0.730095 0.143102   0.119306
 H 0.531468 0.08327 0.109929   0.108707
 H 0.62285 0.155985 0.191238   0.16604
 H 0.993294 0.25126 0.155977   0.16875
 H 0.9279 0.175383 0.075838   0.106741
 H 0.887726 0.395079 0.247858   0.118044
 H 0.947874 0.465967 0.331006   0.131286
 H 0.944664 0.304762 0.436593   0.133242
 H 0.904922 0.230308 0.355171   0.118869
 H 0.470626 0.418302 0.610601   0.106828
 H 0.379512 0.346356 0.692307   0.165595
 H 0.00832 0.25054 0.65767   0.167553
 H 0.073602 0.325698 0.577177   0.106898
 H 0.11244 0.106723 0.747369   0.118636
 H 0.051124 0.034722 0.829828   0.131433
 H 0.053896 0.194208 0.937479   0.133404
 H 0.094222 0.26989 0.856892   0.119213
 C 0.582304 0.878719 0.878588   0.152808
 C 0.532116 0.838338 0.833571   -0.247221
 C 0.687146 0.791574 0.820514   0.284719
 C 0.882738 0.784832 0.853313   -0.249001
 C 0.920468 0.826903 0.89749   0.149875
 C 0.44924 0.703458 0.770529   0.521568
 C 0.424692 0.66135 0.721795   -0.161162
 C 0.590862 0.670537 0.678955   0.075838
 C 0.786752 0.720565 0.683033   -0.168037
 C 0.827318 0.761742 0.731955   0.519804
 C 0.236466 0.611417 0.718634   -0.022938
 C 0.204576 0.57156 0.672418   -0.101632
 C 0.359216 0.580497 0.628936   -0.068931
 C 0.562242 0.628932 0.631838   0.04578
 C 0.740058 0.638008 0.590978   -0.061297
 C 0.922694 0.689694 0.595242   -0.105572
 C 0.946726 0.730827 0.640841   -0.019537
 C 0.277352 0.543534 0.578296   0.649125
 C 0.77216 0.587613 0.547426   0.653951
 C 0.415462 0.619561 0.377634   0.155758
 C 0.4655 0.659515 0.332414   -0.249159
 C 0.310882 0.706308 0.319144   0.286607
 C 0.115288 0.713326 0.351793   -0.248313
 C 0.077626 0.671662 0.396178   0.153454
 C 0.550086 0.794544 0.269865   0.520257
 C 0.575366 0.83726 0.221524   -0.161582
 C 0.409618 0.828693 0.178492   0.074868
 C 0.213752 0.778581 0.181959   -0.165858
 C 0.172954 0.736558 0.230392   0.51947
 C 0.763692 0.887216 0.218966   -0.024283
 C 0.796216 0.927695 0.173147   -0.102107
 C 0.642082 0.919388 0.129472   -0.066196
 C 0.438784 0.870991 0.131799   0.045857
 C 0.261348 0.862509 0.090743   -0.061594
 C 0.078468 0.810822 0.094451   -0.105121
 C 0.054072 0.768991 0.139597   -0.021233
 C 0.724778 0.956925 0.079183   0.647048
 C 0.22979 0.91329 0.047464   0.654385
 C 0.417636 0.121266 0.121406   0.152667
 C 0.467826 0.161648 0.166422   -0.247124
 C 0.312794 0.208411 0.179479   0.284422
 C 0.117204 0.215154 0.146681   -0.248777
 C 0.079474 0.173082 0.102503   0.149841
 C 0.5507 0.296527 0.229464   0.521651
 C 0.57525 0.338635 0.278198   -0.161223
 C 0.40908 0.329447 0.321039   0.075708
 C 0.213188 0.27942 0.31696   -0.168542
 C 0.172626 0.238243 0.268039   0.520045
 C 0.763474 0.388569 0.281359   -0.022497
 C 0.795362 0.428425 0.327575   -0.102073
 C 0.640722 0.419489 0.371057   -0.068529
 C 0.4377 0.371053 0.368155   0.045771
 C 0.259882 0.361976 0.409015   -0.061053
 C 0.077246 0.31029 0.404751   -0.10581
 C 0.053218 0.269157 0.359153   -0.018815
 C 0.722588 0.456451 0.421697   0.649139
 C 0.22778 0.412371 0.452568   0.65359
 C 0.58448 0.380424 0.622359   0.156038
 C 0.534442 0.340471 0.667579   -0.249212
 C 0.68906 0.293677 0.680849   0.286434
 C 0.884654 0.286659 0.6482   -0.24805
 C 0.922314 0.328323 0.603815   0.153614
 C 0.449854 0.205442 0.730129   0.520359
 C 0.424578 0.162725 0.778469   -0.161762
 C 0.590328 0.171291 0.8215   0.07508
 C 0.786184 0.221407 0.818035   -0.165914
 C 0.82699 0.263427 0.769601   0.519777
 C 0.23625 0.11277 0.781028   -0.02408
 C 0.203728 0.07229 0.826846   -0.102601
 C 0.357858 0.080599 0.870521   -0.066209
 C 0.561156 0.128994 0.868194   0.04608
 C 0.738592 0.137477 0.909251   -0.062157
 C 0.92147 0.189163 0.905543   -0.104548
 C 0.945874 0.230992 0.860395   -0.021405
 C 0.275166 0.043061 0.92081   0.647446
 C 0.770154 0.086696 0.952529   0.655002
 N 0.774986 0.873607 0.909743   -0.288554
 N 0.651316 0.751311 0.772717   -0.269003
 N 0.22317 0.625085 0.408745   -0.293317
 N 0.347934 0.746676 0.271469   -0.26921
 N 0.224956 0.126378 0.09025   -0.288354
 N 0.348626 0.248673 0.227276   -0.269167
 N 0.77677 0.3749 0.591248   -0.293492
 N 0.652008 0.253309 0.728524   -0.269274
 O 0.289992 0.577715 0.534955   -0.56607
 O 0.182098 0.48415 0.584042   -0.577182
 O 0.74181 0.526564 0.562327   -0.579285
 O 0.852436 0.609668 0.502596   -0.571998
 O 0.308896 0.697649 0.808413   -0.480043
 O 0.99994 0.803407 0.738354   -0.475703
 O 0.712132 0.923138 0.035602   -0.56845
 O 0.820484 0.016188 0.08549   -0.575047
 O 0.26 0.974253 0.062574   -0.576176
 O 0.149814 0.891529 0.002462   -0.573275
 O 0.689846 0.799867 0.30794   -0.478894
 O 0.000928000000002 0.694539 0.236155   -0.475512
 O 0.70995 0.422271 0.465038   -0.566199
 O 0.817844 0.515835 0.415951   -0.577286
 O 0.258128 0.47342 0.437667   -0.579121
 O 0.147504 0.390316 0.497398   -0.571926
 O 0.691044 0.302336 0.191581   -0.479981
 O 2.0000000021e-06 0.196578 0.26164   -0.475802
 O 0.28781 0.076848 0.964391   -0.568602
 O 0.179458 0.983797 0.914503   -0.575255
 O 0.739942 0.025732 0.937419   -0.576505
 O 0.85013 0.108457 0.997531   -0.573553
 O 0.310096 0.200119 0.692053   -0.478889
 O 0.999014 0.305447 0.763838   -0.475675
