#{'_ref': 'TBD', '_srcid': 'CAKYAQ_clean', 'submitters': [{'name': 'Dalar Nazarian Jeff Camp and David Sholl', 'email': 'dalar@gatech.edu jcamp6@gatech.edu'}], '_method': 'VASP DFT with PBE;DDEC'}
data_La2H24C39N2O13
_symmetry_space_group_name_H-M   'P 1'
_cell_length_a   12.38999974
_cell_length_b   13.25200056
_cell_length_c   17.63000000
_cell_angle_alpha   82.78000141
_cell_angle_beta   73.95200141
_cell_angle_gamma   62.19199969
_symmetry_Int_Tables_number   1
_chemical_formula_structural   La2H24C39N2O13
_chemical_formula_sum   'La4 H48 C78 N4 O26'
_cell_volume   2460.62016507
_cell_formula_units_Z   2
loop_
 _symmetry_equiv_pos_site_id
 _symmetry_equiv_pos_as_xyz
  1  'x, y, z'
loop_
 _atom_site_type_symbol
 _atom_site_fract_x
 _atom_site_fract_y
 _atom_site_fract_z
 _atom_site_charge
 La 0.509074 0.928372 0.388289   2.229613
 La 0.562365 0.928934 0.111314   2.23102
 La 0.490964 0.071587 0.611718   2.229839
 La 0.437677 0.071016 0.888692   2.210436
 H 0.198666 0.362892 0.569728   0.121705
 H 0.885165 0.79204 0.348223   0.113498
 H 0.044949 0.780872 0.413892   0.110212
 H 0.139292 0.910327 0.876112   0.118377
 H 0.268678 0.917288 0.741821   0.113445
 H 0.128323 0.251427 0.378068   0.107302
 H 0.05966 0.56087 0.622977   0.118495
 H 0.963527 0.792488 0.095213   0.113434
 H 0.149373 0.907121 0.537135   0.113948
 H 0.192116 0.39464 0.244018   0.071468
 H 0.327307 0.363953 0.162865   0.065351
 H 0.303322 0.182278 0.182651   0.327889
 H 0.439557 0.361001 0.930658   0.104069
 H 0.322756 0.79213 0.150393   0.113722
 H 0.174187 0.780882 0.084655   0.110425
 H 0.950599 0.909894 0.623218   0.117933
 H 0.814081 0.917029 0.757607   0.113623
 H 0.619151 0.253744 0.122741   0.107301
 H 0.381046 0.558043 0.876762   0.116936
 H 0.244002 0.79245 0.4034   0.112886
 H 0.943252 0.907625 0.962218   0.115549
 H 0.414115 0.39429 0.258383   0.074475
 H 0.309492 0.363774 0.339338   0.061215
 H 0.514863 0.181783 0.318449   0.323938
 H 0.801368 0.637067 0.430281   0.123642
 H 0.114874 0.207911 0.651786   0.11517
 H 0.955094 0.219073 0.586117   0.113052
 H 0.860753 0.089616 0.123897   0.120868
 H 0.731366 0.082659 0.258189   0.118706
 H 0.871711 0.748531 0.621942   0.105434
 H 0.940375 0.439089 0.377032   0.120373
 H 0.036514 0.207464 0.904796   0.114794
 H 0.850673 0.092829 0.462873   0.110881
 H 0.807924 0.60531 0.755989   0.075056
 H 0.672734 0.636 0.837143   0.066114
 H 0.696722 0.817672 0.817355   0.328324
 H 0.560484 0.638942 0.069348   0.122752
 H 0.677285 0.207817 0.849616   0.10637
 H 0.825854 0.219066 0.915354   0.114206
 H 0.049448 0.090053 0.376789   0.117285
 H 0.185965 0.082918 0.2424   0.114529
 H 0.380889 0.746202 0.877266   0.104026
 H 0.618991 0.441904 0.123246   0.116437
 H 0.75604 0.207496 0.596608   0.115626
 H 0.056791 0.092319 0.03779   0.111073
 H 0.585921 0.605664 0.741627   0.075944
 H 0.690545 0.636178 0.660671   0.064687
 H 0.485176 0.818172 0.68156   0.326753
 C 0.288789 0.18418 0.471941   0.756277
 C 0.17444 0.296999 0.474157   -0.127214
 C 0.037095 0.489046 0.527827   0.067292
 C 0.912039 0.793957 0.222862   -0.126124
 C 0.780743 0.814162 0.228325   0.775905
 C 0.142077 0.380834 0.527546   -0.103894
 C 0.949697 0.788259 0.291046   -0.101504
 C 0.106032 0.782981 0.356333   -0.149415
 C 0.06904 0.909431 0.850444   -0.150105
 C 0.336455 0.916137 0.582585   0.748754
 C 0.221014 0.911349 0.634866   -0.115178
 C 0.200363 0.912903 0.716221   -0.107286
 C 0.09105 0.910405 0.766838   0.070533
 C 0.067741 0.783041 0.287305   0.06587
 C 0.100352 0.318678 0.419567   -0.063323
 C 0.00276 0.577248 0.581178   -0.156355
 C 0.995159 0.789044 0.14774   -0.065038
 C 0.130762 0.908188 0.601208   -0.062265
 C 0.29314 0.338246 0.222869   0.044031
 C 0.527437 0.184124 0.028747   0.892709
 C 0.52855 0.29721 0.02647   -0.158256
 C 0.474239 0.48838 0.972204   0.076523
 C 0.294 0.79399 0.275766   -0.128588
 C 0.405062 0.814231 0.270447   0.776422
 C 0.477599 0.379982 0.972824   -0.123231
 C 0.262042 0.788295 0.207548   -0.097881
 C 0.111003 0.782995 0.142229   -0.148147
 C 0.021674 0.909131 0.64891   -0.150664
 C 0.747432 0.916051 0.916877   0.74462
 C 0.867573 0.911418 0.864525   -0.118708
 C 0.886734 0.912777 0.783172   -0.108413
 C 0.998523 0.910331 0.732529   0.070015
 C 0.149244 0.783062 0.211252   0.064794
 C 0.58021 0.320194 0.08105   -0.055847
 C 0.420986 0.575479 0.918529   -0.16137
 C 0.215816 0.789013 0.350853   -0.066358
 C 0.960889 0.908485 0.898152   -0.061063
 C 0.369292 0.338038 0.279183   0.04199
 C 0.71125 0.815782 0.528066   0.756979
 C 0.825593 0.702958 0.525854   -0.128949
 C 0.96294 0.510913 0.472181   0.066831
 C 0.088001 0.205995 0.777147   -0.129168
 C 0.219296 0.185794 0.771682   0.777798
 C 0.857958 0.619125 0.472462   -0.101556
 C 0.050343 0.211689 0.708963   -0.097596
 C 0.89401 0.216963 0.643676   -0.146144
 C 0.931006 0.090512 0.149564   -0.148775
 C 0.663588 0.083816 0.417425   0.750013
 C 0.779029 0.088602 0.365143   -0.117163
 C 0.799682 0.087043 0.283788   -0.104353
 C 0.908995 0.089543 0.233171   0.071025
 C 0.932298 0.216912 0.712703   0.065768
 C 0.899684 0.681281 0.580441   -0.064169
 C 0.997274 0.42271 0.418831   -0.155089
 C 0.004882 0.210906 0.852269   -0.064528
 C 0.869284 0.09176 0.3988   -0.063292
 C 0.7069 0.661706 0.777138   0.041636
 C 0.472609 0.815819 0.971261   0.758931
 C 0.47149 0.702734 0.973537   -0.139169
 C 0.525799 0.511565 0.027803   0.062389
 C 0.706047 0.205949 0.724243   -0.13507
 C 0.594972 0.185728 0.729563   0.786835
 C 0.522441 0.619962 0.027182   -0.097483
 C 0.737997 0.211658 0.792461   -0.091685
 C 0.889037 0.216957 0.85778   -0.145393
 C 0.978372 0.090817 0.351098   -0.150686
 C 0.25261 0.0839 0.083129   0.747701
 C 0.132473 0.088526 0.135482   -0.118636
 C 0.113311 0.087171 0.216835   -0.105505
 C 0.001524 0.089614 0.267479   0.070497
 C 0.850799 0.216883 0.788757   0.064437
 C 0.419829 0.679752 0.918957   -0.065337
 C 0.579052 0.424467 0.081478   -0.158987
 C 0.784223 0.210937 0.649156   -0.063729
 C 0.039155 0.091461 0.101856   -0.062747
 C 0.630746 0.661915 0.720826   0.040961
 C 0.424256 0.151676 0.250434   0.768508
 C 0.575787 0.848276 0.749573   0.760096
 N 0.319134 0.218166 0.224385   -0.506256
 N 0.463156 0.217868 0.276933   -0.499728
 N 0.680909 0.781785 0.775621   -0.502502
 N 0.536883 0.782086 0.723076   -0.4994
 O 0.351072 0.164224 0.523497   -0.771642
 O 0.318171 0.114619 0.417455   -0.694531
 O 0.708786 0.817028 0.296332   -0.748864
 O 0.746278 0.831101 0.163993   -0.735382
 O 0.360721 0.9014 0.50905   -0.688979
 O 0.405449 0.9353 0.615918   -0.76973
 O 0.485767 0.163196 0.0   -0.668211
 O 0.567325 0.115273 0.083228   -0.864359
 O 0.474169 0.817137 0.202492   -0.746991
 O 0.422549 0.831149 0.334884   -0.739419
 O 0.73771 0.901898 0.990381   -0.676342
 O 0.659487 0.93449 0.883662   -0.775977
 O 0.648969 0.835741 0.476508   -0.768426
 O 0.681866 0.885339 0.582554   -0.699039
 O 0.291249 0.182929 0.703674   -0.743923
 O 0.253765 0.168854 0.836012   -0.736148
 O 0.639321 0.098557 0.490959   -0.694892
 O 0.594593 0.064653 0.384092   -0.766206
 O 0.514283 0.83674 0.022901   -0.772786
 O 0.43272 0.884674 0.916782   -0.697663
 O 0.525867 0.18282 0.797518   -0.766664
 O 0.577484 0.168811 0.665126   -0.730168
 O 0.262331 0.098056 0.009625   -0.701798
 O 0.340558 0.065458 0.116343   -0.750622
 O 0.478731 0.042575 0.250077   -0.789344
 O 0.521315 0.957377 0.749929   -0.788917
