#{'_ref': 'TBD', '_srcid': 'CAKYAQ_clean', 'submitters': [{'name': 'Dalar Nazarian Jeff Camp and David Sholl', 'email': 'dalar@gatech.edu jcamp6@gatech.edu'}], '_method': 'VASP DFT with PBE;DDEC'}
data_LiH4C6NO2
_symmetry_space_group_name_H-M   'P 1'
_cell_length_a   5.42650019
_cell_length_b   11.10238001
_cell_length_c   14.31400000
_cell_angle_alpha   89.99877176
_cell_angle_beta   89.98499635
_cell_angle_gamma   77.97180173
_symmetry_Int_Tables_number   1
_chemical_formula_structural   LiH4C6NO2
_chemical_formula_sum   'Li4 H16 C24 N4 O8'
_cell_volume   843.443149743
_cell_formula_units_Z   4
loop_
 _symmetry_equiv_pos_site_id
 _symmetry_equiv_pos_as_xyz
  1  'x, y, z'
loop_
_atom_site_label
 _atom_site_fract_x
 _atom_site_fract_y
 _atom_site_fract_z
 _atom_site_charge
 Li 0.804746 0.253292 0.979184   0.865669
 Li 0.196034 0.245132 0.845844   0.866375
 Li 0.19879 0.74551 0.478988   0.865719
 Li 0.806206 0.753484 0.346049   0.865984
 H 0.532226 0.074676 0.641791   0.128102
 H 0.732778 0.928574 0.516229   0.081862
 H 0.397712 0.831114 0.66541   0.073416
 H 0.234928 0.981546 0.793146   0.138084
 H 0.532756 0.574736 0.682702   0.126442
 H 0.729344 0.42737 0.808256   0.083521
 H 0.23293 0.481226 0.531818   0.136863
 H 0.394988 0.330304 0.659334   0.073125
 H 0.471966 0.92346 0.141811   0.128322
 H 0.273684 0.070452 0.016269   0.082551
 H 0.608918 0.168236 0.165624   0.074079
 H 0.77156 0.01766 0.293363   0.137835
 H 0.469484 0.422474 0.183388   0.126148
 H 0.273734 0.570098 0.308939   0.083671
 H 0.770062 0.517394 0.032346   0.136147
 H 0.608402 0.668166 0.160112   0.073946
 C 0.749054 0.124986 0.805455   0.746759
 C 0.865842 0.038774 0.727975   -0.004539
 C 0.725656 0.023428 0.648398   -0.181206
 C 0.837496 0.941992 0.579171   0.166604
 C 0.207774 0.887896 0.662239   0.165361
 C 0.116388 0.970288 0.733769   -0.176571
 C 0.75183 0.625202 0.519614   0.745978
 C 0.867512 0.538722 0.597075   -0.002898
 C 0.726214 0.523414 0.676395   -0.180238
 C 0.83441 0.441008 0.745428   0.165919
 C 0.114152 0.469816 0.591112   -0.17461
 C 0.205084 0.387126 0.662495   0.166284
 C 0.252336 0.873022 0.304837   0.745614
 C 0.137124 0.959772 0.227397   -0.004509
 C 0.278704 0.97502 0.148123   -0.180492
 C 0.168782 0.056936 0.079173   0.166518
 C 0.798654 0.11125 0.162396   0.166287
 C 0.88984 0.02868 0.233831   -0.175996
 C 0.25078 0.372686 0.020125   0.743813
 C 0.135024 0.459104 0.097698   -0.003256
 C 0.276286 0.474098 0.17708   -0.179202
 C 0.168518 0.556616 0.246131   0.164526
 C 0.888716 0.528406 0.091746   -0.173804
 C 0.798042 0.611062 0.163204   0.165833
 N 0.073192 0.872988 0.585531   -0.463428
 N 0.07014 0.37203 0.739087   -0.465811
 N 0.933266 0.126106 0.085647   -0.465352
 N 0.933118 0.625928 0.239793   -0.464676
 O 0.89895 0.165054 0.860448   -0.805381
 O 0.511854 0.150094 0.810082   -0.735187
 O 0.902312 0.665046 0.464709   -0.806011
 O 0.514674 0.65042 0.514741   -0.734525
 O 0.101638 0.835272 0.360931   -0.804763
 O 0.489552 0.845568 0.308518   -0.736099
 O 0.100436 0.335022 0.96386   -0.80443
 O 0.488038 0.345334 0.016592   -0.734376
