#{'_ref': 'TBD', '_srcid': 'CAKYAQ_clean', 'submitters': [{'name': 'Dalar Nazarian Jeff Camp and David Sholl', 'email': 'dalar@gatech.edu jcamp6@gatech.edu'}], '_method': 'VASP DFT with PBE;DDEC'}
data_Cd2H12C17N18
_symmetry_space_group_name_H-M   'P 1'
_cell_length_a   9.90049958
_cell_length_b   11.20000036
_cell_length_c   12.93300000
_cell_angle_alpha   86.45399799
_cell_angle_beta   82.78500052
_cell_angle_gamma   81.19199845
_symmetry_Int_Tables_number   1
_chemical_formula_structural   Cd2H12C17N18
_chemical_formula_sum   'Cd4 H24 C34 N36'
_cell_volume   1404.62086116
_cell_formula_units_Z   2
loop_
 _symmetry_equiv_pos_site_id
 _symmetry_equiv_pos_as_xyz
  1  'x, y, z'
loop_
 _atom_site_type_symbol
 _atom_site_fract_x
 _atom_site_fract_y
 _atom_site_fract_z
 _atom_site_charge
 Cd 0.176114 0.509836 0.022284   0.972512
 Cd 0.336556 0.350696 0.284567   0.904141
 Cd 0.82398 0.490122 0.977693   0.972296
 Cd 0.663524 0.649266 0.715412   0.904165
 H 0.068172 0.724482 0.846057   0.094899
 H 0.07301 0.94218 0.793443   0.124716
 H 0.18297 0.069068 0.903469   0.105542
 H 0.28565 0.973606 0.058549   0.114202
 H 0.63347 0.687454 0.29576   0.138592
 H 0.734704 0.673234 0.464649   0.101968
 H 0.35824 0.639894 0.636532   0.096013
 H 0.242006 0.643654 0.476879   0.148225
 H 0.143704 0.917172 0.321148   0.159374
 H 0.16375 0.130266 0.361511   0.087672
 H 0.55575 0.106818 0.20149   0.08927
 H 0.551694 0.89242 0.152697   0.158564
 H 0.931906 0.27548 0.153921   0.094743
 H 0.927046 0.057786 0.206544   0.124582
 H 0.8171 0.930872 0.096525   0.10549
 H 0.714396 0.026366 0.941443   0.114098
 H 0.366606 0.312518 0.704222   0.138765
 H 0.265368 0.326738 0.535333   0.10198
 H 0.641832 0.360072 0.363449   0.096036
 H 0.75807 0.356312 0.5231   0.148247
 H 0.856368 0.082774 0.678847   0.159404
 H 0.8363 0.869696 0.638467   0.087446
 H 0.444314 0.893122 0.798505   0.089211
 H 0.448362 0.107556 0.847277   0.158776
 C 0.112274 0.782622 0.893343   0.165665
 C 0.116176 0.90434 0.863826   -0.156996
 C 0.177604 0.973916 0.92461   0.01555
 C 0.233826 0.92019 0.013047   -0.169761
 C 0.223844 0.798512 0.038632   0.180045
 C 0.27604 0.730606 0.129934   0.222126
 C 0.363474 0.668798 0.27622   0.272512
 C 0.428304 0.667154 0.372758   0.046174
 C 0.568226 0.677244 0.369272   -0.182902
 C 0.625404 0.669872 0.462914   0.151778
 C 0.415982 0.648414 0.559571   0.153975
 C 0.350994 0.652118 0.469722   -0.184747
 C 0.347696 0.89079 0.234916   0.211359
 C 0.23661 0.956534 0.29416   -0.25806
 C 0.24791 0.074168 0.316708   0.172359
 C 0.46742 0.06065 0.227506   0.180706
 C 0.46601 0.941686 0.201398   -0.22397
 C 0.887794 0.217342 0.10664   0.166107
 C 0.883884 0.095626 0.13616   -0.156944
 C 0.822448 0.026054 0.07538   0.015447
 C 0.76623 0.079778 0.986941   -0.169496
 C 0.776218 0.201454 0.961353   0.180003
 C 0.724036 0.269358 0.870045   0.222302
 C 0.6366 0.331168 0.723761   0.272948
 C 0.57177 0.332812 0.627223   0.046374
 C 0.431848 0.322726 0.63071   -0.183055
 C 0.37467 0.330094 0.537067   0.151939
 C 0.584092 0.351548 0.440409   0.153871
 C 0.649082 0.34785 0.530258   -0.184859
 C 0.65237 0.109174 0.76507   0.211482
 C 0.763458 0.04342 0.705834   -0.25823
 C 0.752146 0.92579 0.683279   0.172467
 C 0.53264 0.939294 0.772491   0.181244
 C 0.534048 0.058284 0.798584   -0.22425
 N 0.1635 0.731026 0.979108   -0.351925
 N 0.268522 0.613778 0.147919   -0.222281
 N 0.32141 0.575242 0.23868   -0.233215
 N 0.336836 0.769228 0.210047   -0.074594
 N 0.55096 0.656004 0.556535   -0.328063
 N 0.361034 0.125812 0.283971   -0.330954
 N 0.947102 0.554038 0.101641   -0.663995
 N 0.906308 0.64434 0.151279   0.537562
 N 0.867728 0.730938 0.200544   -0.45914
 N 0.24789 0.333142 0.118119   -0.644399
 N 0.31276 0.252314 0.065082   0.511219
 N 0.374958 0.172156 0.015965   -0.433004
 N 0.136868 0.36893 0.387965   -0.64241
 N 0.032498 0.339548 0.36314   0.519057
 N 0.928396 0.310294 0.343962   -0.503326
 N 0.444416 0.660332 0.805234   -0.551108
 N 0.410242 0.572808 0.853599   0.519568
 N 0.37548 0.485364 0.900783   -0.540494
 N 0.836586 0.268934 0.020867   -0.352132
 N 0.731558 0.386184 0.85206   -0.222184
 N 0.678676 0.42472 0.761297   -0.23383
 N 0.663238 0.230736 0.789932   -0.074716
 N 0.44911 0.34397 0.443447   -0.328201
 N 0.639022 0.874142 0.716013   -0.331355
 N 0.052996 0.44593 0.898332   -0.664321
 N 0.09378 0.35562 0.848698   0.537682
 N 0.132348 0.269018 0.799438   -0.458974
 N 0.75219 0.666816 0.881864   -0.644082
 N 0.687316 0.74764 0.934904   0.510789
 N 0.62511 0.827796 0.984023   -0.432767
 N 0.86321 0.631062 0.612012   -0.641903
 N 0.967588 0.660428 0.636841   0.518559
 N 0.071712 0.689678 0.656026   -0.503305
 N 0.555662 0.339632 0.194749   -0.55099
 N 0.589842 0.427156 0.146384   0.519419
 N 0.624614 0.514594 0.099199   -0.540276
