#{'_ref': 'TBD', '_srcid': 'CAKYAQ_clean', 'submitters': [{'name': 'Dalar Nazarian Jeff Camp and David Sholl', 'email': 'dalar@gatech.edu jcamp6@gatech.edu'}], '_method': 'VASP DFT with PBE;DDEC'}
data_CdH4(CN)3
_symmetry_space_group_name_H-M   'P 1'
_cell_length_a   8.20449961
_cell_length_b   8.20450034
_cell_length_c   15.74900000
_cell_angle_alpha   94.79899859
_cell_angle_beta   94.81700288
_cell_angle_gamma   90.29200308
_symmetry_Int_Tables_number   1
_chemical_formula_structural   CdH4(CN)3
_chemical_formula_sum   'Cd4 H16 C12 N12'
_cell_volume   1052.59919835
_cell_formula_units_Z   4
loop_
 _symmetry_equiv_pos_site_id
 _symmetry_equiv_pos_as_xyz
  1  'x, y, z'
loop_
 _atom_site_type_symbol
 _atom_site_fract_x
 _atom_site_fract_y
 _atom_site_fract_z
 _atom_site_charge
 Cd 0.457526 0.54099 0.251952   0.510305
 Cd 0.499462 0.99938 0.001947   0.919414
 Cd 0.541054 0.457796 0.751885   0.510844
 Cd 0.999292 0.499614 0.501935   0.919386
 H 0.805626 0.139348 0.077256   0.304601
 H 0.807588 0.945134 0.09587   0.30385
 H 0.885016 0.865952 0.953328   0.077291
 H 0.883364 0.074416 0.933615   0.076903
 H 0.115566 0.923996 0.070197   0.077097
 H 0.113892 0.132456 0.050489   0.07736
 H 0.19129 0.05318 0.907918   0.303521
 H 0.19347 0.859038 0.926617   0.303417
 H 0.139948 0.805648 0.576943   0.304693
 H 0.946044 0.80772 0.596059   0.303857
 H 0.865446 0.885202 0.453669   0.077325
 H 0.07367 0.883456 0.43342   0.077057
 H 0.924612 0.115768 0.570402   0.077133
 H 0.132842 0.114004 0.550152   0.077477
 H 0.052208 0.191492 0.407754   0.302346
 H 0.858324 0.1937 0.426918   0.304227
 C 0.461408 0.745936 0.168456   -0.076156
 C 0.537264 0.25285 0.835388   -0.078401
 C 0.671854 0.542096 0.348627   -0.072216
 C 0.456902 0.326494 0.155442   -0.073207
 C 0.909844 0.990254 0.983767   0.019075
 C 0.089088 0.008154 0.020045   0.017793
 C 0.74627 0.461586 0.668585   -0.077117
 C 0.252312 0.537326 0.335261   -0.077348
 C 0.541842 0.672316 0.848391   -0.072037
 C 0.326752 0.456888 0.655207   -0.073838
 C 0.99001 0.910008 0.483774   0.018977
 C 0.008272 0.089216 0.520048   0.018312
 N 0.467788 0.836264 0.115019   -0.360199
 N 0.531074 0.162558 0.888855   -0.358147
 N 0.773468 0.539922 0.405371   -0.361513
 N 0.459296 0.224848 0.098746   -0.360674
 N 0.790332 0.022902 0.048179   -0.62616
 N 0.208628 0.975534 0.955647   -0.623787
 N 0.836726 0.467914 0.615216   -0.359498
 N 0.16189 0.531226 0.388662   -0.359305
 N 0.539554 0.773956 0.905097   -0.361926
 N 0.225148 0.45922 0.598467   -0.36028
 N 0.02326 0.790512 0.548141   -0.62644
 N 0.975042 0.208734 0.455693   -0.624013
