#{'_ref': 'TBD', '_srcid': 'CAKYAQ_clean', 'submitters': [{'name': 'Dalar Nazarian Jeff Camp and David Sholl', 'email': 'dalar@gatech.edu jcamp6@gatech.edu'}], '_method': 'VASP DFT with PBE;DDEC'}
data_LaH6(C4O3)3
_symmetry_space_group_name_H-M   'P 1'
_cell_length_a   7.82449948
_cell_length_b   13.13400041
_cell_length_c   16.32300000
_cell_angle_alpha   113.68200084
_cell_angle_beta   103.73299988
_cell_angle_gamma   90.03299768
_symmetry_Int_Tables_number   1
_chemical_formula_structural   LaH6(C4O3)3
_chemical_formula_sum   'La4 H24 C48 O36'
_cell_volume   1483.58642181
_cell_formula_units_Z   4
loop_
 _symmetry_equiv_pos_site_id
 _symmetry_equiv_pos_as_xyz
  1  'x, y, z'
loop_
 _atom_site_type_symbol
 _atom_site_fract_x
 _atom_site_fract_y
 _atom_site_fract_z
 _atom_site_charge
 La 0.29966 0.303304 0.198207   2.199063
 La 0.201696 0.105207 0.801928   2.199938
 La 0.700386 0.696646 0.801751   2.199279
 La 0.798408 0.894726 0.198083   2.199766
 H 0.156186 0.455397 0.384864   0.388958
 H 0.510768 0.238878 0.650482   0.371084
 H 0.270878 0.544044 0.202444   0.373895
 H 0.357456 0.482103 0.528174   0.129955
 H 0.252964 0.070528 0.417939   0.140687
 H 0.863578 0.335272 0.855089   0.146821
 H 0.342862 0.070661 0.614603   0.388824
 H 0.989786 0.588162 0.349465   0.371699
 H 0.229852 0.341634 0.797436   0.373993
 H 0.140314 0.953902 0.471482   0.129762
 H 0.248474 0.652817 0.581887   0.140426
 H 0.636918 0.480056 0.144916   0.146646
 H 0.843786 0.544595 0.615085   0.388946
 H 0.489206 0.761075 0.34946   0.370828
 H 0.729136 0.4559 0.797546   0.373977
 H 0.642576 0.517881 0.471792   0.129952
 H 0.74693 0.929459 0.582012   0.140585
 H 0.136286 0.664697 0.144981   0.146947
 H 0.657112 0.929299 0.385381   0.388714
 H 0.01017 0.411841 0.650661   0.371031
 H 0.770378 0.658298 0.202591   0.374018
 H 0.859658 0.046109 0.52852   0.129711
 H 0.751486 0.347111 0.418016   0.14025
 H 0.363286 0.519892 0.855102   0.146603
 C 0.20948 0.209762 0.381304   -0.203408
 C 0.236974 0.327109 0.412708   0.306789
 C 0.33163 0.391854 0.503356   -0.166681
 C 0.400974 0.342874 0.564659   -0.247805
 C 0.37037 0.225711 0.533888   0.323203
 C 0.274732 0.160994 0.442905   -0.177571
 C 0.117164 0.134613 0.282713   0.809557
 C 0.513102 0.413587 0.658901   0.715574
 C 0.016656 0.390796 0.995658   -0.228096
 C 0.095746 0.484866 0.078644   0.361837
 C 0.92249 0.408402 0.91877   -0.189741
 C 0.03802 0.272803 0.983815   0.795204
 C 0.290398 0.82868 0.618425   -0.204619
 C 0.261998 0.914537 0.586917   0.307449
 C 0.16699 0.888496 0.496293   -0.166357
 C 0.098392 0.778132 0.435058   -0.246509
 C 0.130222 0.691798 0.465841   0.322125
 C 0.225946 0.718228 0.556832   -0.175956
 C 0.383014 0.852018 0.716969   0.808192
 C 0.985522 0.754483 0.340999   0.71478
 C 0.483862 0.395095 0.004299   -0.228242
 C 0.404606 0.406258 0.921345   0.361382
 C 0.577822 0.489539 0.081242   -0.18949
 C 0.463116 0.288828 0.016031   0.796727
 C 0.790462 0.790235 0.618658   -0.203688
 C 0.763002 0.672887 0.587257   0.306963
 C 0.668374 0.608131 0.496607   -0.166322
 C 0.59902 0.657099 0.435298   -0.248234
 C 0.629588 0.774262 0.466065   0.323464
 C 0.725192 0.838992 0.557051   -0.17753
 C 0.882748 0.865397 0.717249   0.809778
 C 0.486934 0.586369 0.341052   0.716062
 C 0.983354 0.609187 0.004336   -0.228615
 C 0.904214 0.515103 0.921368   0.362089
 C 0.077408 0.591581 0.081282   -0.189361
 C 0.96203 0.727168 0.016134   0.794512
 C 0.709576 0.171255 0.38152   -0.20473
 C 0.737994 0.085421 0.413053   0.307552
 C 0.832976 0.111495 0.503687   -0.166576
 C 0.901566 0.221868 0.564898   -0.246565
 C 0.869734 0.30818 0.534088   0.322342
 C 0.774026 0.281716 0.443088   -0.17583
 C 0.616966 0.147865 0.282965   0.807885
 C 0.014474 0.245485 0.659073   0.714267
 C 0.51635 0.604854 0.995719   -0.227895
 C 0.595646 0.593684 0.078666   0.361651
 C 0.422392 0.51041 0.918776   -0.189434
 C 0.537048 0.711136 0.984003   0.796522
 O 0.13277 0.161223 0.218107   -0.698902
 O 0.0296 0.045205 0.269654   -0.734486
 O 0.586726 0.364263 0.710374   -0.566138
 O 0.535408 0.518764 0.684115   -0.71261
 O 0.170926 0.374885 0.351405   -0.586684
 O 0.435976 0.175025 0.591688   -0.489527
 O 0.08043 0.25067 0.054683   -0.71686
 O 0.015822 0.198421 0.901451   -0.722831
 O 0.192904 0.472182 0.155368   -0.622281
 O 0.369822 0.94379 0.781586   -0.699485
 O 0.468382 0.774942 0.730031   -0.733755
 O 0.911724 0.6537 0.289739   -0.565888
 O 0.962774 0.834382 0.315709   -0.7117
 O 0.327172 0.023695 0.648045   -0.586541
 O 0.065706 0.583207 0.407971   -0.48955
 O 0.421888 0.195909 0.945109   -0.71721
 O 0.484516 0.296715 0.09842   -0.722966
 O 0.307596 0.316882 0.84464   -0.622773
 O 0.867172 0.83878 0.781856   -0.699231
 O 0.970266 0.954822 0.730309   -0.734414
 O 0.413288 0.635683 0.289573   -0.56625
 O 0.464676 0.481191 0.315842   -0.712668
 O 0.829068 0.625109 0.648556   -0.58681
 O 0.563978 0.824934 0.408255   -0.489384
 O 0.919706 0.749252 0.945241   -0.715955
 O 0.98406 0.801571 0.098672   -0.72329
 O 0.807094 0.527762 0.844626   -0.622324
 O 0.630202 0.056089 0.218368   -0.699116
 O 0.531518 0.2249 0.269877   -0.733728
 O 0.088276 0.346263 0.710353   -0.565635
 O 0.037246 0.165556 0.684325   -0.711168
 O 0.67284 0.976257 0.351938   -0.586446
 O 0.93425 0.416778 0.591937   -0.489238
 O 0.578124 0.804055 0.054927   -0.716878
 O 0.515764 0.70326 0.901624   -0.723306
 O 0.692762 0.683042 0.155346   -0.622984
