#{'_ref': 'TBD', '_srcid': 'CAKYAQ_clean', 'submitters': [{'name': 'Dalar Nazarian Jeff Camp and David Sholl', 'email': 'dalar@gatech.edu jcamp6@gatech.edu'}], '_method': 'VASP DFT with PBE;DDEC'}
data_CdH14C24(NO2)2
_symmetry_space_group_name_H-M   'P 1'
_cell_length_a   7.79549969
_cell_length_b   15.08234756
_cell_length_c   15.09938958
_cell_angle_alpha   62.04787198
_cell_angle_beta   78.95783199
_cell_angle_gamma   78.88701723
_symmetry_Int_Tables_number   1
_chemical_formula_structural   CdH14C24(NO2)2
_chemical_formula_sum   'Cd2 H28 C48 N4 O8'
_cell_volume   1528.26835884
_cell_formula_units_Z   2
loop_
 _symmetry_equiv_pos_site_id
 _symmetry_equiv_pos_as_xyz
  1  'x, y, z'
loop_
 _atom_site_type_symbol
 _atom_site_fract_x
 _atom_site_fract_y
 _atom_site_fract_z
 _atom_site_charge
 Cd 0.565524 0.068171 0.135051   1.062336
 Cd 0.065173 0.13449 0.068757   1.054274
 H 0.595233 0.376218 0.855261   0.119949
 H 0.611119 0.557181 0.738588   0.097384
 H 0.78003 0.412536 0.08468   0.111275
 H 0.789243 0.597514 0.968529   0.109822
 H 0.696155 0.691067 0.63983   0.109254
 H 0.584527 0.765693 0.505128   0.129274
 H 0.554414 0.852216 0.321842   0.122186
 H 0.738458 0.108957 0.283227   0.07789
 H 0.787404 0.031827 0.463521   0.146499
 H 0.718308 0.984492 0.61529   0.118399
 H 0.840046 0.050351 0.672601   0.097235
 H 0.899444 0.143035 0.759791   0.107792
 H 0.796791 0.888543 0.046666   0.119593
 H 0.737151 0.793926 0.959441   0.101843
 H 0.095675 0.854984 0.376593   0.118509
 H 0.111242 0.738311 0.557425   0.098066
 H 0.280897 0.084451 0.41288   0.112618
 H 0.289638 0.96836 0.597718   0.110181
 H 0.19532 0.639457 0.691529   0.110561
 H 0.083936 0.504689 0.766205   0.123037
 H 0.053306 0.321273 0.853031   0.103777
 H 0.237797 0.282871 0.109408   0.104175
 H 0.287078 0.463282 0.032042   0.127592
 H 0.219127 0.61529 0.984317   0.115988
 H 0.348739 0.672073 0.048128   0.097639
 H 0.407655 0.759223 0.141074   0.107356
 H 0.292381 0.046852 0.889643   0.120328
 H 0.232227 0.959784 0.795041   0.102295
 C 0.680166 0.272263 0.045577   0.637374
 C 0.688071 0.382876 0.976829   -0.088693
 C 0.640645 0.424928 0.878873   -0.076215
 C 0.650664 0.526723 0.813807   -0.136727
 C 0.705073 0.590375 0.84499   0.012686
 C 0.741673 0.445693 0.00882   -0.083308
 C 0.748009 0.548114 0.944287   -0.113434
 C 0.716766 0.69931 0.776542   0.254693
 C 0.704765 0.740281 0.672796   -0.236063
 C 0.705604 0.844406 0.611766   0.108387
 C 0.687653 0.891297 0.502542   0.109642
 C 0.625025 0.840897 0.459318   -0.200688
 C 0.605248 0.888845 0.357161   0.098102
 C 0.706642 0.032937 0.335769   0.224137
 C 0.720292 0.0 0.437012   -0.232686
 C 0.723757 0.902863 0.658276   -0.218817
 C 0.747822 0.856454 0.760868   0.266057
 C 0.781449 0.91505 0.810585   0.017899
 C 0.826425 0.014416 0.754813   -0.130828
 C 0.860448 0.067125 0.803085   -0.063173
 C 0.8496 0.022242 0.908708   -0.096989
 C 0.804818 0.923392 0.964722   -0.059806
 C 0.772006 0.8706 0.916252   -0.097836
 C 0.900938 0.074809 0.960593   0.639932
 C 0.181102 0.045324 0.272712   0.636359
 C 0.188735 0.976598 0.383237   -0.086279
 C 0.141094 0.878618 0.42526   -0.081083
 C 0.150919 0.813552 0.526989   -0.137595
 C 0.20529 0.844772 0.59059   0.014044
 C 0.242388 0.008578 0.446012   -0.081
 C 0.248443 0.944097 0.548348   -0.114698
 C 0.216912 0.776342 0.69944   0.254368
 C 0.204458 0.672518 0.740554   -0.239148
 C 0.205553 0.611525 0.844568   0.111628
 C 0.187252 0.502228 0.891618   0.117276
 C 0.124353 0.458907 0.841404   -0.207235
 C 0.104311 0.356689 0.889498   0.142387
 C 0.205916 0.335412 0.03342   0.162385
 C 0.230572 0.436718 0.989566   -0.199651
 C 0.224416 0.658142 0.902776   -0.221445
 C 0.248841 0.760775 0.85623   0.267612
 C 0.283048 0.810491 0.914645   0.018324
 C 0.331821 0.754408 0.013133   -0.131778
 C 0.365754 0.802639 0.065891   -0.063342
 C 0.351198 0.908481 0.021915   -0.096847
 C 0.303106 0.964777 0.923825   -0.059076
 C 0.270102 0.916374 0.871014   -0.098632
 C 0.401854 0.960401 0.074641   0.640434
 N 0.741376 0.756472 0.81884   -0.38439
 N 0.627535 0.0 0.296027   -0.336592
 N 0.242066 0.818749 0.756379   -0.385274
 N 0.142538 0.295597 0.984645   -0.328025
 O 0.571064 0.231228 0.026958   -0.577839
 O 0.778385 0.226434 0.115881   -0.634234
 O 0.862318 0.038761 0.057631   -0.641977
 O 0.990381 0.148681 0.910904   -0.588229
 O 0.071768 0.026887 0.231657   -0.577596
 O 0.279696 0.115408 0.227042   -0.630382
 O 0.362042 0.057431 0.039087   -0.64002
 O 0.491897 0.910673 0.14831   -0.593218
