#{'_ref': 'TBD', '_srcid': 'CAKYAQ_clean', 'submitters': [{'name': 'Dalar Nazarian Jeff Camp and David Sholl', 'email': 'dalar@gatech.edu jcamp6@gatech.edu'}], '_method': 'VASP DFT with PBE;DDEC'}
data_BaHC3SO4
_symmetry_space_group_name_H-M   'P 1'
_cell_length_a   6.85800000
_cell_length_b   6.92549951
_cell_length_c   16.44800000
_cell_angle_alpha   90.00000000
_cell_angle_beta   90.00100255
_cell_angle_gamma   90.26399753
_symmetry_Int_Tables_number   1
_chemical_formula_structural   BaHC3SO4
_chemical_formula_sum   'Ba4 H4 C12 S4 O16'
_cell_volume   781.190712164
_cell_formula_units_Z   4
loop_
 _symmetry_equiv_pos_site_id
 _symmetry_equiv_pos_as_xyz
  1  'x, y, z'
loop_
 _atom_site_type_symbol
 _atom_site_fract_x
 _atom_site_fract_y
 _atom_site_fract_z
 _atom_site_charge
 Ba 0.214586 0.715684 0.50062   1.701401
 Ba 0.785434 0.284352 0.000616999999998   1.701444
 Ba 0.785418 0.284362 0.499335   1.701372
 Ba 0.214586 0.715702 0.0   1.700906
 H 0.59147 0.89823 0.749979   0.120648
 H 0.107286 0.393164 0.749983   0.171477
 H 0.40853 0.101826 0.249978   0.120709
 H 0.892848 0.607022 0.249977   0.171308
 C 0.776268 0.717266 0.676804   -0.45999
 C 0.925256 0.571924 0.674471   0.527771
 C 0.223714 0.28278 0.176805   -0.460173
 C 0.074792 0.428186 0.174472   0.526992
 C 0.22371 0.28276 0.323163   -0.459161
 C 0.074784 0.42817 0.325494   0.527167
 C 0.776276 0.717272 0.823163   -0.459268
 C 0.925262 0.571926 0.825493   0.527835
 C 0.704032 0.787912 0.749983   0.092158
 C 0.994304 0.503474 0.749984   -0.474069
 C 0.29599 0.212166 0.249984   0.092022
 C 0.00568 0.496562 0.249981   -0.473687
 S 0.688342 0.808068 0.584904   1.424268
 S 0.311648 0.191984 0.084906   1.424372
 S 0.311638 0.191966 0.415069   1.423757
 S 0.688362 0.808068 0.915068   1.424715
 O 0.533728 0.951908 0.600724   -0.719791
 O 0.608314 0.640524 0.537612   -0.798193
 O 0.858234 0.898744 0.541679   -0.797219
 O 0.993204 0.50671 0.604101   -0.833923
 O 0.466262 0.048146 0.100727   -0.720258
 O 0.391668 0.359516 0.037608   -0.797765
 O 0.14175 0.1013 0.041684   -0.796866
 O 0.006788 0.493346 0.104099   -0.833658
 O 0.466242 0.048112 0.399259   -0.719919
 O 0.391676 0.359506 0.46236   -0.797693
 O 0.141744 0.101304 0.4583   -0.796856
 O 0.006788 0.493334 0.395865   -0.83323
 O 0.533758 0.951928 0.899259   -0.719692
 O 0.608328 0.640526 0.962355   -0.798271
 O 0.858254 0.898728 0.958302   -0.79749
 O 0.993214 0.506712 0.895867   -0.833151
