#{'_ref': 'TBD', '_srcid': 'CAKYAQ_clean', 'submitters': [{'name': 'Dalar Nazarian Jeff Camp and David Sholl', 'email': 'dalar@gatech.edu jcamp6@gatech.edu'}], '_method': 'VASP DFT with PBE;DDEC'}
data_CaH8C14SO6
_symmetry_space_group_name_H-M   'P 1'
_cell_length_a   5.63600007
_cell_length_b   12.10449961
_cell_length_c   23.21100000
_cell_angle_alpha   98.11599841
_cell_angle_beta   90.00899694
_cell_angle_gamma   90.01099888
_symmetry_Int_Tables_number   1
_chemical_formula_structural   CaH8C14SO6
_chemical_formula_sum   'Ca4 H32 C56 S4 O24'
_cell_volume   1567.61699541
_cell_formula_units_Z   4
loop_
 _symmetry_equiv_pos_site_id
 _symmetry_equiv_pos_as_xyz
  1  'x, y, z'
loop_
 _atom_site_type_symbol
 _atom_site_fract_x
 _atom_site_fract_y
 _atom_site_fract_z
 _atom_site_charge
 Ca 0.207796 0.393876 0.954634   1.606847
 Ca 0.707764 0.10617 0.545356   1.606656
 Ca 0.792142 0.606142 0.045349   1.606595
 Ca 0.292174 0.893856 0.454632   1.60679
 H 0.767634 0.895814 0.88466   0.107392
 H 0.746494 0.026974 0.792619   0.108567
 H 0.428716 0.180094 0.834012   0.121819
 H 0.87436 0.714344 0.916884   0.12643
 H 0.507232 0.176532 0.727464   0.10007
 H 0.823436 0.029454 0.686981   0.118537
 H 0.450282 0.029986 0.942011   0.116545
 H 0.554446 0.8471 0.974045   0.104669
 H 0.26743 0.604258 0.615351   0.107456
 H 0.24626 0.473084 0.707387   0.108919
 H 0.92831 0.31994 0.665964   0.121819
 H 0.374374 0.785734 0.583149   0.126279
 H 0.006984 0.323488 0.772506   0.100082
 H 0.323408 0.470594 0.813019   0.118454
 H 0.94975 0.46998 0.55794   0.116228
 H 0.054136 0.652882 0.52593   0.104466
 H 0.232306 0.104182 0.115307   0.107588
 H 0.253472 0.973068 0.207374   0.10852
 H 0.571262 0.819938 0.165971   0.121692
 H 0.125582 0.28567 0.083102   0.12635
 H 0.492724 0.823498 0.272518   0.100031
 H 0.176504 0.970584 0.313011   0.118682
 H 0.549716 0.970024 0.057974   0.11657
 H 0.445474 0.152938 0.025942   0.104533
 H 0.732492 0.395766 0.384632   0.107349
 H 0.753688 0.526954 0.292603   0.108733
 H 0.071638 0.680096 0.334025   0.121594
 H 0.625548 0.21429 0.416835   0.12622
 H 0.992966 0.676554 0.227483   0.100113
 H 0.676544 0.529446 0.18697   0.118472
 H 0.05018 0.530048 0.442047   0.116468
 H 0.945792 0.347144 0.474058   0.104569
 C 0.214198 0.1045 0.636497   0.758648
 C 0.292534 0.661542 0.96787   0.754018
 C 0.940468 0.884814 0.903922   -0.058243
 C 0.914096 0.058298 0.778193   -0.060564
 C 0.299574 0.14497 0.801606   -0.055087
 C 0.084782 0.102146 0.818995   -0.181847
 C 0.000618000000003 0.783246 0.921927   -0.072284
 C 0.34218 0.143278 0.742245   -0.067483
 C 0.17202 0.101368 0.700769   -0.081733
 C 0.222268 0.769942 0.947551   -0.092949
 C 0.957612 0.059216 0.719266   -0.074516
 C 0.101822 0.973532 0.912326   -0.172689
 C 0.32498 0.961 0.936834   -0.057971
 C 0.383248 0.858952 0.95422   -0.056104
 C 0.714192 0.395514 0.863492   0.758504
 C 0.792554 0.838482 0.532134   0.753706
 C 0.440258 0.615244 0.596091   -0.057889
 C 0.41386 0.441748 0.721804   -0.061089
 C 0.79925 0.355062 0.698373   -0.054906
 C 0.584462 0.397892 0.680993   -0.181397
 C 0.500532 0.716818 0.578101   -0.072434
 C 0.84197 0.356746 0.757734   -0.067912
 C 0.671938 0.398664 0.799219   -0.081568
 C 0.722164 0.730086 0.55245   -0.092715
 C 0.457492 0.440826 0.780729   -0.074356
 C 0.601484 0.526492 0.587654   -0.173317
 C 0.824614 0.539 0.563138   -0.057281
 C 0.88301 0.641056 0.545768   -0.055957
 C 0.785742 0.895524 0.36349   0.758622
 C 0.707388 0.338488 0.032127   0.753464
 C 0.059442 0.1152 0.096064   -0.058534
 C 0.085868 0.94174 0.221798   -0.060343
 C 0.700394 0.855062 0.198379   -0.054695
 C 0.915192 0.897888 0.180994   -0.182106
 C 0.999298 0.21678 0.078072   -0.07246
 C 0.657778 0.856754 0.257739   -0.067713
 C 0.827926 0.898666 0.299218   -0.081861
 C 0.777668 0.230082 0.052437   -0.092856
 C 0.042336 0.940822 0.280724   -0.07466
 C 0.898088 0.026484 0.087651   -0.17237
 C 0.674914 0.03903 0.063154   -0.05807
 C 0.616652 0.141086 0.045777   -0.055906
 C 0.285748 0.60451 0.136497   0.758426
 C 0.207382 0.161542 0.467853   0.754215
 C 0.559664 0.38478 0.403894   -0.057768
 C 0.586088 0.55829 0.278185   -0.060758
 C 0.2007 0.644974 0.301616   -0.054292
 C 0.415486 0.602142 0.318996   -0.181913
 C 0.499392 0.283208 0.421884   -0.071948
 C 0.157982 0.643294 0.242256   -0.068035
 C 0.32801 0.60137 0.20077   -0.081397
 C 0.277762 0.26994 0.447536   -0.093132
 C 0.54246 0.559216 0.21926   -0.074464
 C 0.398444 0.473534 0.412332   -0.17341
 C 0.175314 0.461026 0.436849   -0.057351
 C 0.116916 0.35897 0.454218   -0.056235
 S 0.016928 0.105996 0.893952   1.124097
 S 0.516408 0.394046 0.606039   1.123915
 S 0.983064 0.89403 0.106038   1.123999
 S 0.483534 0.60598 0.39395   1.124218
 O 0.51013 0.643802 0.97522   -0.696558
 O 0.760256 0.115814 0.900158   -0.533349
 O 0.17347 0.188684 0.927571   -0.630084
 O 0.427786 0.110712 0.620011   -0.726707
 O 0.125044 0.592334 0.975293   -0.795583
 O 0.031008 0.101684 0.604602   -0.733831
 O 0.01015 0.856184 0.52476   -0.696205
 O 0.259688 0.384252 0.599852   -0.533277
 O 0.672616 0.311314 0.572392   -0.630261
 O 0.927798 0.389274 0.879977   -0.726854
 O 0.62512 0.907698 0.524707   -0.795571
 O 0.531054 0.398356 0.895389   -0.733567
 O 0.489798 0.356214 0.024762   -0.696137
 O 0.23973 0.88421 0.099833   -0.533215
 O 0.826548 0.811338 0.072415   -0.63004
 O 0.572154 0.889312 0.379976   -0.726837
 O 0.874876 0.407692 0.024696   -0.795394
 O 0.96893 0.898334 0.395385   -0.733613
 O 0.989788 0.143834 0.475228   -0.696347
 O 0.740254 0.615764 0.400138   -0.533363
 O 0.32734 0.688716 0.427599   -0.630381
 O 0.072142 0.610738 0.120012   -0.726835
 O 0.374818 0.092328 0.47528   -0.795792
 O 0.468884 0.601658 0.104597   -0.733568
