#{'_ref': 'TBD', '_srcid': 'CAKYAQ_clean', 'submitters': [{'name': 'Dalar Nazarian Jeff Camp and David Sholl', 'email': 'dalar@gatech.edu jcamp6@gatech.edu'}], '_method': 'VASP DFT with PBE;DDEC'}
data_SrH18C24(N2O5)2
_symmetry_space_group_name_H-M   'P 1'
_cell_length_a   15.05199995
_cell_length_b   15.10417613
_cell_length_c   15.11099985
_cell_angle_alpha   111.11909245
_cell_angle_beta   110.91800110
_cell_angle_gamma   106.25797506
_symmetry_Int_Tables_number   1
_chemical_formula_structural   SrH18C24(N2O5)2
_chemical_formula_sum   'Sr4 H72 C96 N16 O40'
_cell_volume   2643.95900739
_cell_formula_units_Z   4
loop_
 _symmetry_equiv_pos_site_id
 _symmetry_equiv_pos_as_xyz
  1  'x, y, z'
loop_
 _atom_site_type_symbol
 _atom_site_fract_x
 _atom_site_fract_y
 _atom_site_fract_z
 _atom_site_charge
 Sr 0.728142 0.478132 0.249457   1.540215
 Sr 0.477505 0.727964 0.750281   1.539393
 Sr 0.271811 0.521881 0.75052   1.540101
 Sr 0.522449 0.272049 0.249699   1.539129
 H 0.603563 0.885194 0.535009   0.142569
 H 0.764544 0.749953 0.383947   0.13538
 H 0.452602 0.710483 0.180355   0.107858
 H 0.859497 0.780653 0.557723   0.079657
 H 0.907653 0.901519 0.554855   0.080265
 H 0.928026 0.909295 0.682063   0.099463
 H 0.449096 0.812546 0.348142   0.093822
 H 0.529215 0.710598 0.062885   0.300657
 H 0.663463 0.513444 0.895478   0.348274
 H 0.850863 0.069898 0.965259   0.142592
 H 0.867302 0.381487 0.1156   0.134838
 H 0.029275 0.273049 0.319863   0.107738
 H 0.725349 0.303609 0.941678   0.079378
 H 0.849707 0.35327 0.944586   0.079742
 H 0.730078 0.247094 0.817423   0.099672
 H 0.963815 0.102046 0.15232   0.093621
 H 0.147705 0.466915 0.437349   0.300692
 H 0.116706 0.767507 0.603692   0.348442
 H 0.886099 0.847994 0.278397   0.1428
 H 0.75065 0.864426 0.983951   0.135266
 H 0.71173 0.029763 0.256414   0.108237
 H 0.781466 0.721511 0.919232   0.079201
 H 0.903548 0.844212 0.992287   0.079409
 H 0.909597 0.723673 0.978389   0.09927
 H 0.81389 0.963333 0.360882   0.093307
 H 0.711888 0.147322 0.180515   0.301539
 H 0.514079 0.118156 0.850982   0.347679
 H 0.069471 0.608929 0.222443   0.142608
 H 0.380386 0.766694 0.516731   0.134592
 H 0.272571 0.455686 0.244473   0.108416
 H 0.302223 0.862952 0.58147   0.079462
 H 0.352716 0.910792 0.508114   0.079873
 H 0.246067 0.931847 0.521866   0.099703
 H 0.101876 0.454043 0.140057   0.09289
 H 0.46637 0.53083 0.319724   0.301258
 H 0.767066 0.661894 0.648794   0.347544
 H 0.396394 0.114822 0.464972   0.142402
 H 0.235411 0.25006 0.616032   0.135727
 H 0.547352 0.289529 0.819627   0.107899
 H 0.140458 0.219361 0.442257   0.07999
 H 0.098495 0.098495 0.445125   0.08421
 H 0.07193 0.090719 0.317916   0.099144
 H 0.55086 0.187469 0.651839   0.093901
 H 0.470737 0.289414 0.937095   0.30046
 H 0.336487 0.486569 0.104498   0.348221
 H 0.149091 0.930119 0.034716   0.142413
 H 0.132653 0.61853 0.884378   0.134973
 H 0.970673 0.726962 0.680112   0.107915
 H 0.274607 0.696408 0.058298   0.079416
 H 0.15025 0.646751 0.055395   0.079666
 H 0.269882 0.752928 0.182556   0.099669
 H 0.036134 0.897966 0.847654   0.093895
 H 0.852246 0.533097 0.562626   0.300779
 H 0.883246 0.232506 0.396285   0.348226
 H 0.113851 0.152012 0.721581   0.142937
 H 0.249299 0.135583 0.016029   0.135464
 H 0.288227 0.97025 0.74357   0.10819
 H 0.218486 0.278501 0.080745   0.079245
 H 0.096406 0.155801 0.007696   0.079466
 H 0.090353 0.276337 0.021589   0.099355
 H 0.186068 0.03668 0.639102   0.093125
 H 0.288066 0.852691 0.819468   0.301615
 H 0.48588 0.88186 0.149001   0.347631
 H 0.930488 0.39109 0.777541   0.142533
 H 0.619573 0.233323 0.483251   0.134728
 H 0.727387 0.544331 0.75551   0.108304
 H 0.697737 0.137065 0.418513   0.079287
 H 0.647245 0.089226 0.491871   0.079914
 H 0.753893 0.068171 0.478119   0.099719
 H 0.898081 0.545974 0.859925   0.092786
 H 0.533588 0.469189 0.680258   0.301194
 H 0.23289 0.338119 0.351189   0.347388
 C 0.603905 0.839998 0.460423   -0.234723
 C 0.693694 0.823261 0.471412   0.296483
 C 0.695992 0.76407 0.377242   -0.281543
 C 0.609025 0.724062 0.271887   0.015989
 C 0.520507 0.742349 0.261375   -0.151738
 C 0.614392 0.665834 0.174422   0.362087
 C 0.597362 0.611114 0.008314   -0.050127
 C 0.872676 0.86379 0.59271   -0.068451
 C 0.657118 0.573103 0.064179   0.008916
 C 0.562231 0.598751 0.89772   0.659854
 C 0.70878 0.507803 0.031385   0.63067
 C 0.518553 0.799628 0.356106   -0.021888
 C 0.880117 0.144679 0.039739   -0.234436
 C 0.85291 0.223405 0.028473   0.296454
 C 0.887744 0.319697 0.122503   -0.280402
 C 0.952409 0.337968 0.227986   0.016317
 C 0.980678 0.260017 0.238746   -0.15181
 C 0.991364 0.440516 0.325322   0.360558
 C 0.102243 0.589153 0.491397   -0.051045
 C 0.773606 0.281123 0.906806   -0.066994
 C 0.008341 0.593009 0.435139   0.009691
 C 0.200351 0.664537 0.602065   0.659999
 C 0.975417 0.677088 0.467462   0.629848
 C 0.943391 0.163511 0.144164   -0.022149
 C 0.84092 0.877729 0.233372   -0.234084
 C 0.82403 0.849865 0.127164   0.297064
 C 0.764862 0.885308 0.066352   -0.28091
 C 0.724966 0.951162 0.113634   0.016359
 C 0.743461 0.980134 0.220129   -0.15307
 C 0.666629 0.99076 0.050729   0.361307
 C 0.611952 0.102681 0.013842   -0.05094
 C 0.864707 0.768574 0.988836   -0.065693
 C 0.573602 0.008671 0.916281   0.008998
 C 0.599807 0.201257 0.036873   0.659898
 C 0.507841 0.976178 0.799919   0.63119
 C 0.800766 0.942282 0.278721   -0.021379
 C 0.144135 0.608451 0.267457   -0.234298
 C 0.222605 0.697438 0.373614   0.297226
 C 0.318779 0.69873 0.434381   -0.279203
 C 0.33716 0.611519 0.387101   0.016196
 C 0.259453 0.52378 0.28071   -0.15324
 C 0.439719 0.615816 0.449805   0.360644
 C 0.588595 0.597522 0.486261   -0.051442
 C 0.280153 0.876236 0.511664   -0.06771
 C 0.592274 0.656953 0.583977   0.009668
 C 0.66417 0.562105 0.462926   0.65906
 C 0.676321 0.707548 0.700271   0.630699
 C 0.163099 0.522865 0.222148   -0.021549
 C 0.396051 0.160018 0.539558   -0.234732
 C 0.306262 0.176755 0.528567   0.298291
 C 0.303963 0.235944 0.622737   -0.283552
 C 0.390928 0.275949 0.728092   0.016556
 C 0.479448 0.257665 0.738606   -0.152279
 C 0.385561 0.334178 0.825558   0.361518
 C 0.402587 0.388897 0.991664   -0.050511
 C 0.127282 0.136224 0.40727   -0.06327
 C 0.342833 0.426908 0.935798   0.009011
 C 0.437721 0.401263 0.10226   0.65993
 C 0.291166 0.492205 0.968588   0.630208
 C 0.481403 0.200387 0.643875   -0.022345
 C 0.119836 0.855337 0.960237   -0.233929
 C 0.147044 0.776612 0.971504   0.296506
 C 0.11221 0.680319 0.877474   -0.280674
 C 0.047543 0.662046 0.77199   0.016289
 C 0.019271 0.739995 0.761229   -0.151705
 C 0.008588 0.559497 0.674657   0.360617
 C 0.897708 0.410859 0.508581   -0.050454
 C 0.226352 0.718897 0.093172   -0.067261
 C 0.991612 0.407004 0.564839   0.009263
 C 0.799601 0.335476 0.397912   0.660096
 C 0.024535 0.322925 0.532517   0.629587
 C 0.05656 0.836503 0.855811   -0.02273
 C 0.159035 0.122282 0.766608   -0.23407
 C 0.175926 0.150149 0.872817   0.29782
 C 0.235093 0.114706 0.93363   -0.281377
 C 0.274986 0.048849 0.886348   0.017089
 C 0.256498 0.019881 0.779856   -0.153415
 C 0.333329 0.009255 0.949253   0.361338
 C 0.388005 0.897333 0.986141   -0.050749
 C 0.135244 0.231437 0.011142   -0.065871
 C 0.426351 0.991341 0.083702   0.008813
 C 0.400148 0.798756 0.963109   0.659694
 C 0.492111 0.023835 0.200064   0.631433
 C 0.199191 0.05773 0.721262   -0.021485
 C 0.855823 0.391567 0.732526   -0.234238
 C 0.777355 0.302581 0.626369   0.297158
 C 0.681179 0.301287 0.565601   -0.279286
 C 0.662798 0.388498 0.612881   0.016088
 C 0.740506 0.476238 0.719274   -0.153525
 C 0.560239 0.384202 0.550177   0.361019
 C 0.411363 0.402495 0.51372   -0.051211
 C 0.719807 0.123782 0.48832   -0.067457
 C 0.407683 0.343063 0.416005   0.009081
 C 0.335788 0.437913 0.537055   0.65887
 C 0.323633 0.292463 0.29971   0.6312
 C 0.83686 0.477153 0.777836   -0.021026
 N 0.665733 0.60604 0.166022   -0.501374
 N 0.570887 0.66867 0.079368   -0.246795
 N 0.93974 0.500046 0.333311   -0.502079
 N 0.08909 0.491934 0.420585   -0.245525
 N 0.606451 0.939415 0.940121   -0.500524
 N 0.669647 0.088915 0.097252   -0.246618
 N 0.499166 0.666331 0.560406   -0.500174
 N 0.491305 0.572017 0.403037   -0.245455
 N 0.334222 0.393974 0.833958   -0.501053
 N 0.429062 0.33134 0.92061   -0.246158
 N 0.060213 0.499968 0.666668   -0.501998
 N 0.910862 0.508079 0.579393   -0.245745
 N 0.393508 0.0606 0.059862   -0.500315
 N 0.330303 0.911096 0.902732   -0.246999
 N 0.500791 0.333684 0.439575   -0.499829
 N 0.508653 0.428001 0.596945   -0.245438
 O 0.774668 0.868756 0.577249   -0.252126
 O 0.500945 0.638262 0.868793   -0.69613
 O 0.596098 0.549618 0.83949   -0.554626
 O 0.751444 0.474888 0.090891   -0.594966
 O 0.708739 0.484964 0.938824   -0.47936
 O 0.79321 0.198644 0.922551   -0.252651
 O 0.269008 0.632475 0.631297   -0.695012
 O 0.208982 0.756232 0.660112   -0.555054
 O 0.882968 0.660171 0.40749   -0.593961
 O 0.044848 0.769364 0.560044   -0.479689
 O 0.869244 0.788814 0.09126   -0.253703
 O 0.639362 0.269725 0.137307   -0.695206
 O 0.550842 0.210627 0.954379   -0.554359
 O 0.474499 0.883588 0.724513   -0.59419
 O 0.485129 0.046142 0.77744   -0.479481
 O 0.197693 0.778659 0.409432   -0.253122
 O 0.632214 0.501381 0.362459   -0.694
 O 0.756075 0.595274 0.545313   -0.554631
 O 0.659283 0.750124 0.775859   -0.594036
 O 0.768699 0.706663 0.722471   -0.479025
 O 0.225287 0.131258 0.42273   -0.260073
 O 0.499005 0.36175 0.131186   -0.696222
 O 0.403852 0.450396 0.160488   -0.554751
 O 0.248508 0.525124 0.909085   -0.59482
 O 0.291211 0.515049 0.061152   -0.479148
 O 0.206749 0.801376 0.077426   -0.252535
 O 0.730944 0.367537 0.368682   -0.695235
 O 0.790969 0.24378 0.339867   -0.555088
 O 0.116984 0.339841 0.592489   -0.594042
 O 0.955105 0.23065 0.439934   -0.479311
 O 0.130697 0.211187 0.908713   -0.254068
 O 0.360591 0.730288 0.862675   -0.695198
 O 0.449115 0.789387 0.045604   -0.554229
 O 0.525461 0.116428 0.27547   -0.594318
 O 0.514833 0.953875 0.222544   -0.479531
 O 0.802266 0.221359 0.590551   -0.253052
 O 0.367744 0.498637 0.637522   -0.693897
 O 0.243881 0.404741 0.454667   -0.554696
 O 0.340671 0.249887 0.224123   -0.593987
 O 0.231255 0.293347 0.277511   -0.479398
