data_image0
_cell_length_a       9.16385
_cell_length_b       18.4243
_cell_length_c       18.6612
_cell_angle_alpha    89.9689
_cell_angle_beta     89.9782
_cell_angle_gamma    89.9832

loop_
  _atom_site_label
  _atom_site_occupancy
  _atom_site_fract_x
  _atom_site_fract_y
  _atom_site_fract_z
  _atom_site_thermal_displace_type
  _atom_site_B_iso_or_equiv
  _atom_site_type_symbol
  H1       1.0000 0.66491  0.92729  0.89820  Biso   1.000  H
  H2       1.0000 0.20537  0.94183  0.61629  Biso   1.000  H
  H3       1.0000 0.20155  0.98710  0.02548  Biso   1.000  H
  H4       1.0000 0.81628  0.64212  0.71935  Biso   1.000  H
  H5       1.0000 0.79756  0.65947  0.81239  Biso   1.000  H
  H6       1.0000 0.05751  0.71760  0.64059  Biso   1.000  H
  H7       1.0000 0.66680  0.57731  0.60064  Biso   1.000  H
  H8       1.0000 0.21674  0.56679  0.88536  Biso   1.000  H
  H9       1.0000 0.20332  0.51735  0.47373  Biso   1.000  H
  H10      1.0000 0.82044  0.82889  0.66504  Biso   1.000  H
  H11      1.0000 0.80234  0.85624  0.78994  Biso   1.000  H
  H12      1.0000 0.05902  0.85993  0.77375  Biso   1.000  H
  H13      1.0000 0.07204  0.80039  0.84797  Biso   1.000  H
  H14      1.0000 0.65602  0.89770  0.57096  Biso   1.000  H
  H15      1.0000 0.20706  0.61023  0.57087  Biso   1.000  H
  H16      1.0000 0.20279  0.03984  0.52417  Biso   1.000  H
  H17      1.0000 0.81571  0.78456  0.85280  Biso   1.000  H
  H18      1.0000 0.05356  0.67227  0.82768  Biso   1.000  H
  H19      1.0000 0.07358  0.63687  0.73991  Biso   1.000  H
  H20      1.0000 0.66732  0.61136  0.93026  Biso   1.000  H
  H21      1.0000 0.20534  0.89429  0.92826  Biso   1.000  H
  H22      1.0000 0.21442  0.46905  0.97789  Biso   1.000  H
  H23      1.0000 0.80017  0.73819  0.63478  Biso   1.000  H
  H24      1.0000 0.07668  0.81260  0.65310  Biso   1.000  H
  H25      1.0000 0.33378  0.07747  0.10059  Biso   1.000  H
  H26      1.0000 0.78406  0.06663  0.38519  Biso   1.000  H
  H27      1.0000 0.79728  0.01725  0.97361  Biso   1.000  H
  H28      1.0000 0.18022  0.32813  0.16424  Biso   1.000  H
  H29      1.0000 0.19823  0.35675  0.28885  Biso   1.000  H
  H30      1.0000 0.94158  0.36028  0.27233  Biso   1.000  H
  H31      1.0000 0.92830  0.30168  0.34728  Biso   1.000  H
  H32      1.0000 0.33564  0.42729  0.39833  Biso   1.000  H
  H33      1.0000 0.79545  0.44168  0.11616  Biso   1.000  H
  H34      1.0000 0.79898  0.48683  0.52555  Biso   1.000  H
  H35      1.0000 0.20318  0.16019  0.31323  Biso   1.000  H
  H36      1.0000 0.18457  0.14191  0.22037  Biso   1.000  H
  H37      1.0000 0.33352  0.11140  0.43031  Biso   1.000  H
  H38      1.0000 0.79517  0.39402  0.42832  Biso   1.000  H
  H39      1.0000 0.78633  0.96887  0.47769  Biso   1.000  H
  H40      1.0000 0.20088  0.23713  0.13486  Biso   1.000  H
  H41      1.0000 0.94362  0.21641  0.14088  Biso   1.000  H
  H42      1.0000 0.92403  0.31154  0.15230  Biso   1.000  H
  H43      1.0000 0.34472  0.39781  0.07107  Biso   1.000  H
  H44      1.0000 0.79357  0.11011  0.07077  Biso   1.000  H
  H45      1.0000 0.79808  0.53970  0.02404  Biso   1.000  H
  H46      1.0000 0.18457  0.28571  0.35240  Biso   1.000  H
  H47      1.0000 0.94720  0.17324  0.32847  Biso   1.000  H
  H48      1.0000 0.92731  0.13683  0.24111  Biso   1.000  H
  C1       1.0000 0.43685  0.84996  0.84928  Biso   1.000  C
  C2       1.0000 0.43632  0.90569  0.90759  Biso   1.000  C
  C3       1.0000 0.56425  0.94076  0.92641  Biso   1.000  C
  C4       1.0000 0.30277  0.95446  0.58522  Biso   1.000  C
  C5       1.0000 0.30285  0.97401  0.99751  Biso   1.000  C
  C6       1.0000 0.56621  0.99361  0.98130  Biso   1.000  C
  C7       1.0000 0.85142  0.67767  0.76317  Biso   1.000  C
  C8       1.0000 0.43834  0.65505  0.64933  Biso   1.000  C
  C9       1.0000 0.43811  0.59896  0.59136  Biso   1.000  C
  C10      1.0000 0.56605  0.56378  0.57258  Biso   1.000  C
  C11      1.0000 0.31405  0.55425  0.91648  Biso   1.000  C
  C12      1.0000 0.30458  0.53042  0.50169  Biso   1.000  C
  C13      1.0000 0.56795  0.51073  0.51786  Biso   1.000  C
  C14      1.0000 0.85304  0.80343  0.80014  Biso   1.000  C
  C15      1.0000 0.02142  0.80781  0.79537  Biso   1.000  C
  C16      1.0000 0.43275  0.85503  0.65393  Biso   1.000  C
  C17      1.0000 0.43186  0.91401  0.59877  Biso   1.000  C
  C18      1.0000 0.55752  0.92912  0.56035  Biso   1.000  C
  C19      1.0000 0.30615  0.58169  0.55522  Biso   1.000  C
  C20      1.0000 0.30183  0.00855  0.53432  Biso   1.000  C
  C21      1.0000 0.55988  0.98411  0.50757  Biso   1.000  C
  C22      1.0000 0.02013  0.67928  0.77173  Biso   1.000  C
  C23      1.0000 0.44164  0.65285  0.84669  Biso   1.000  C
  C24      1.0000 0.44307  0.59472  0.90272  Biso   1.000  C
  C25      1.0000 0.56894  0.57990  0.94107  Biso   1.000  C
  C26      1.0000 0.30443  0.92279  0.94391  Biso   1.000  C
  C27      1.0000 0.31329  0.50039  0.96751  Biso   1.000  C
  C28      1.0000 0.57156  0.52495  0.99402  Biso   1.000  C
  C29      1.0000 0.85382  0.77263  0.67481  Biso   1.000  C
  C30      1.0000 0.02270  0.76374  0.67351  Biso   1.000  C
  C31      1.0000 0.56229  0.15505  0.14928  Biso   1.000  C
  C32      1.0000 0.56249  0.09898  0.09129  Biso   1.000  C
  C33      1.0000 0.43453  0.06388  0.07251  Biso   1.000  C
  C34      1.0000 0.68675  0.05413  0.41635  Biso   1.000  C
  C35      1.0000 0.69601  0.03038  0.00158  Biso   1.000  C
  C36      1.0000 0.43261  0.01086  0.01778  Biso   1.000  C
  C37      1.0000 0.14746  0.30405  0.29953  Biso   1.000  C
  C38      1.0000 0.97910  0.30843  0.29462  Biso   1.000  C
  C39      1.0000 0.56368  0.34984  0.34935  Biso   1.000  C
  C40      1.0000 0.56422  0.40555  0.40769  Biso   1.000  C
  C41      1.0000 0.43630  0.44070  0.42653  Biso   1.000  C
  C42      1.0000 0.69805  0.45437  0.08515  Biso   1.000  C
  C43      1.0000 0.69769  0.47380  0.49759  Biso   1.000  C
  C44      1.0000 0.43436  0.49355  0.48140  Biso   1.000  C
  C45      1.0000 0.14936  0.17791  0.26384  Biso   1.000  C
  C46      1.0000 0.55917  0.15278  0.34662  Biso   1.000  C
  C47      1.0000 0.55775  0.09466  0.40266  Biso   1.000  C
  C48      1.0000 0.43189  0.07990  0.44107  Biso   1.000  C
  C49      1.0000 0.69609  0.42257  0.44399  Biso   1.000  C
  C50      1.0000 0.68749  0.00026  0.46737  Biso   1.000  C
  C51      1.0000 0.42926  0.02496  0.49403  Biso   1.000  C
  C52      1.0000 0.14702  0.27195  0.17453  Biso   1.000  C
  C53      1.0000 0.97815  0.26295  0.17328  Biso   1.000  C
  C54      1.0000 0.56800  0.35502  0.15394  Biso   1.000  C
  C55      1.0000 0.56891  0.41399  0.09877  Biso   1.000  C
  C56      1.0000 0.44325  0.42918  0.06042  Biso   1.000  C
  C57      1.0000 0.69445  0.08164  0.05513  Biso   1.000  C
  C58      1.0000 0.69900  0.50846  0.03425  Biso   1.000  C
  C59      1.0000 0.44091  0.48417  0.00763  Biso   1.000  C
  C60      1.0000 0.98067  0.17961  0.27243  Biso   1.000  C
  N1       1.0000 0.07821  0.75029  0.74725  Biso   1.000  N
  N2       1.0000 0.79600  0.75161  0.74621  Biso   1.000  N
  N3       1.0000 0.92250  0.25033  0.24716  Biso   1.000  N
  N4       1.0000 0.20471  0.25167  0.24615  Biso   1.000  N
  O1       1.0000 0.55330  0.82284  0.66562  Biso   1.000  O
  O2       1.0000 0.31783  0.81688  0.83646  Biso   1.000  O
  O3       1.0000 0.56046  0.68620  0.83361  Biso   1.000  O
  O4       1.0000 0.31688  0.68503  0.66466  Biso   1.000  O
  O5       1.0000 0.55941  0.66948  0.67968  Biso   1.000  O
  O6       1.0000 0.31310  0.84035  0.68563  Biso   1.000  O
  O7       1.0000 0.55585  0.83890  0.81600  Biso   1.000  O
  O8       1.0000 0.32099  0.66524  0.81521  Biso   1.000  O
  O9       1.0000 0.44036  0.18619  0.33362  Biso   1.000  O
  O10      1.0000 0.68376  0.18498  0.16456  Biso   1.000  O
  O11      1.0000 0.44741  0.32291  0.16571  Biso   1.000  O
  O12      1.0000 0.68271  0.31673  0.33646  Biso   1.000  O
  O13      1.0000 0.44469  0.33883  0.31612  Biso   1.000  O
  O14      1.0000 0.67977  0.16512  0.31506  Biso   1.000  O
  O15      1.0000 0.44123  0.16950  0.17969  Biso   1.000  O
  O16      1.0000 0.68769  0.34026  0.18555  Biso   1.000  O
  Ni1      1.0000 0.30702  0.75188  0.74960  Biso   1.000  Ni
  Ni2      1.0000 0.56732  0.75349  0.74843  Biso   1.000  Ni
  Ni3      1.0000 0.43336  0.25350  0.24845  Biso   1.000  Ni
  Ni4      1.0000 0.69367  0.25182  0.24952  Biso   1.000  Ni
