data_image0
_cell_length_a       9.391
_cell_length_b       18.431
_cell_length_c       18.431
_cell_angle_alpha    90
_cell_angle_beta     90
_cell_angle_gamma    90

loop_
  _atom_site_label
  _atom_site_occupancy
  _atom_site_fract_x
  _atom_site_fract_y
  _atom_site_fract_z
  _atom_site_thermal_displace_type
  _atom_site_B_iso_or_equiv
  _atom_site_type_symbol
  O1       1.0000 0.39243  0.31070  0.18187  Biso   1.000  O
  O2       1.0000 0.60906  0.66208  0.83467  Biso   1.000  O
  O3       1.0000 0.60906  0.66208  0.69014  Biso   1.000  O
  O4       1.0000 0.39243  0.31070  0.32640  Biso   1.000  O
  O5       1.0000 0.60511  0.15135  0.17711  Biso   1.000  O
  O6       1.0000 0.39638  0.82143  0.83943  Biso   1.000  O
  O7       1.0000 0.39638  0.82143  0.68538  Biso   1.000  O
  O8       1.0000 0.60511  0.15135  0.33116  Biso   1.000  O
  O9       1.0000 0.36934  0.17195  0.17791  Biso   1.000  O
  O10      1.0000 0.63215  0.80083  0.83863  Biso   1.000  O
  O11      1.0000 0.63215  0.80083  0.68619  Biso   1.000  O
  O12      1.0000 0.36934  0.17195  0.33036  Biso   1.000  O
  O13      1.0000 0.62582  0.28269  0.17633  Biso   1.000  O
  O14      1.0000 0.37567  0.69008  0.84021  Biso   1.000  O
  O15      1.0000 0.37567  0.69008  0.68460  Biso   1.000  O
  O16      1.0000 0.62582  0.28269  0.33194  Biso   1.000  O
  C1       1.0000 0.47865  0.13651  0.15278  Biso   1.000  C
  C2       1.0000 0.52284  0.83626  0.86377  Biso   1.000  C
  C3       1.0000 0.52284  0.83626  0.66105  Biso   1.000  C
  C4       1.0000 0.47865  0.13651  0.35550  Biso   1.000  C
  C5       1.0000 0.46964  0.08024  0.10001  Biso   1.000  C
  C6       1.0000 0.53185  0.89253  0.91653  Biso   1.000  C
  C7       1.0000 0.53185  0.89253  0.60828  Biso   1.000  C
  C8       1.0000 0.46964  0.08024  0.40826  Biso   1.000  C
  C9       1.0000 0.58316  0.03388  0.07739  Biso   1.000  C
  C10      1.0000 0.41833  0.93890  0.93915  Biso   1.000  C
  C11      1.0000 0.41833  0.93890  0.58566  Biso   1.000  C
  C12      1.0000 0.58316  0.03388  0.43088  Biso   1.000  C
  H1       1.0000 0.68458  0.03737  0.10532  Biso   1.000  H
  H2       1.0000 0.31691  0.93540  0.91122  Biso   1.000  H
  H3       1.0000 0.31691  0.93540  0.61360  Biso   1.000  H
  H4       1.0000 0.68458  0.03737  0.40295  Biso   1.000  H
  C13      1.0000 0.67337  0.39617  0.05779  Biso   1.000  C
  C14      1.0000 0.32812  0.57660  0.95875  Biso   1.000  C
  C15      1.0000 0.32812  0.57660  0.56606  Biso   1.000  C
  C16      1.0000 0.67337  0.39617  0.45048  Biso   1.000  C
  H5       1.0000 0.76879  0.36769  0.07404  Biso   1.000  H
  H6       1.0000 0.23270  0.60508  0.94251  Biso   1.000  H
  H7       1.0000 0.23270  0.60508  0.58231  Biso   1.000  H
  H8       1.0000 0.76879  0.36769  0.43424  Biso   1.000  H
  C17      1.0000 0.67702  0.94792  0.01411  Biso   1.000  C
  C18      1.0000 0.32447  0.02485  0.00243  Biso   1.000  C
  C19      1.0000 0.32447  0.02485  0.50584  Biso   1.000  C
  C20      1.0000 0.67702  0.94792  0.51070  Biso   1.000  C
  H9       1.0000 0.77741  0.94918  0.02632  Biso   1.000  H
  H10      1.0000 0.22408  0.02360  0.99022  Biso   1.000  H
  H11      1.0000 0.22408  0.02360  0.53459  Biso   1.000  H
  H12      1.0000 0.77741  0.94918  0.48195  Biso   1.000  H
  C21      1.0000 0.56598  0.98255  0.01903  Biso   1.000  C
  C22      1.0000 0.43551  0.99023  0.99751  Biso   1.000  C
  C23      1.0000 0.43551  0.99023  0.52730  Biso   1.000  C
  C24      1.0000 0.56598  0.98255  0.48924  Biso   1.000  C
  H13      1.0000 0.10784  0.35027  0.30218  Biso   1.000  H
  H14      1.0000 0.89365  0.62250  0.71437  Biso   1.000  H
  H15      1.0000 0.89365  0.62250  0.81045  Biso   1.000  H
  H16      1.0000 0.10784  0.35027  0.20609  Biso   1.000  H
  H17      1.0000 0.86180  0.31995  0.20608  Biso   1.000  H
  H18      1.0000 0.13969  0.65282  0.81046  Biso   1.000  H
  H19      1.0000 0.13969  0.65282  0.71435  Biso   1.000  H
  H20      1.0000 0.86180  0.31995  0.30219  Biso   1.000  H
  C25      1.0000 0.51657  0.31873  0.15117  Biso   1.000  C
  C26      1.0000 0.48492  0.65404  0.86537  Biso   1.000  C
  C27      1.0000 0.48492  0.65404  0.65944  Biso   1.000  C
  C28      1.0000 0.51657  0.31873  0.35710  Biso   1.000  C
  C29      1.0000 0.54068  0.37451  0.08688  Biso   1.000  C
  C30      1.0000 0.46081  0.59827  0.92966  Biso   1.000  C
  C31      1.0000 0.46081  0.59827  0.59515  Biso   1.000  C
  C32      1.0000 0.54068  0.37451  0.42139  Biso   1.000  C
  C33      1.0000 0.41983  0.41454  0.06189  Biso   1.000  C
  C34      1.0000 0.58166  0.55824  0.95466  Biso   1.000  C
  C35      1.0000 0.58166  0.55824  0.57016  Biso   1.000  C
  C36      1.0000 0.41983  0.41454  0.44638  Biso   1.000  C
  H21      1.0000 0.31581  0.39807  0.08052  Biso   1.000  H
  H22      1.0000 0.68568  0.57470  0.93602  Biso   1.000  H
  H23      1.0000 0.68568  0.57470  0.58879  Biso   1.000  H
  H24      1.0000 0.31581  0.39807  0.42775  Biso   1.000  H
  C37      1.0000 0.34057  0.07385  0.06114  Biso   1.000  C
  C38      1.0000 0.66092  0.89892  0.95540  Biso   1.000  C
  C39      1.0000 0.66092  0.89892  0.56942  Biso   1.000  C
  C40      1.0000 0.34057  0.07385  0.44713  Biso   1.000  C
  H25      1.0000 0.25089  0.10762  0.07600  Biso   1.000  H
  H26      1.0000 0.75060  0.86515  0.94055  Biso   1.000  H
  H27      1.0000 0.75060  0.86515  0.58427  Biso   1.000  H
  H28      1.0000 0.25089  0.10762  0.43227  Biso   1.000  H
  C41      1.0000 0.68695  0.45532  0.00890  Biso   1.000  C
  C42      1.0000 0.31454  0.51746  0.00764  Biso   1.000  C
  C43      1.0000 0.31454  0.51746  0.51718  Biso   1.000  C
  C44      1.0000 0.68695  0.45532  0.49937  Biso   1.000  C
  H29      1.0000 0.79197  0.46897  0.00557  Biso   1.000  H
  H30      1.0000 0.20952  0.50380  0.01097  Biso   1.000  H
  H31      1.0000 0.20952  0.50380  0.49730  Biso   1.000  H
  H32      1.0000 0.79197  0.46897  0.51924  Biso   1.000  H
  C45      1.0000 0.43326  0.47588  0.01330  Biso   1.000  C
  C46      1.0000 0.56824  0.49690  0.00325  Biso   1.000  C
  C47      1.0000 0.56824  0.49690  0.52157  Biso   1.000  C
  C48      1.0000 0.43326  0.47588  0.49497  Biso   1.000  C
  C49      1.0000 0.04918  0.20947  0.18978  Biso   1.000  C
  C50      1.0000 0.95231  0.76330  0.82676  Biso   1.000  C
  C51      1.0000 0.95231  0.76330  0.69805  Biso   1.000  C
  C52      1.0000 0.04918  0.20947  0.31849  Biso   1.000  C
  H33      1.0000 0.09247  0.23361  0.13908  Biso   1.000  H
  H34      1.0000 0.90902  0.73917  0.87746  Biso   1.000  H
  H35      1.0000 0.90902  0.73917  0.64736  Biso   1.000  H
  H36      1.0000 0.09247  0.23361  0.36919  Biso   1.000  H
  H37      1.0000 0.07861  0.15092  0.18798  Biso   1.000  H
  H38      1.0000 0.92288  0.82186  0.82856  Biso   1.000  H
  H39      1.0000 0.92288  0.82186  0.69625  Biso   1.000  H
  H40      1.0000 0.07861  0.15092  0.32029  Biso   1.000  H
  C53      1.0000 0.87947  0.17570  0.19003  Biso   1.000  C
  C54      1.0000 0.12202  0.79708  0.82651  Biso   1.000  C
  C55      1.0000 0.12202  0.79708  0.69830  Biso   1.000  C
  C56      1.0000 0.87947  0.17570  0.31824  Biso   1.000  C
  H41      1.0000 0.83503  0.11954  0.18875  Biso   1.000  H
  H42      1.0000 0.16646  0.85324  0.82779  Biso   1.000  H
  H43      1.0000 0.16646  0.85324  0.69702  Biso   1.000  H
  H44      1.0000 0.83503  0.11954  0.31952  Biso   1.000  H
  H45      1.0000 0.84135  0.20190  0.13948  Biso   1.000  H
  H46      1.0000 0.16014  0.77088  0.87706  Biso   1.000  H
  H47      1.0000 0.16014  0.77088  0.64775  Biso   1.000  H
  H48      1.0000 0.84135  0.20190  0.36879  Biso   1.000  H
  Ni1      1.0000 0.61964  0.21603  0.25414  Biso   1.000  Ni
  Ni2      1.0000 0.38185  0.75674  0.76241  Biso   1.000  Ni
  Ni3      1.0000 0.35039  0.24483  0.25414  Biso   1.000  Ni
  Ni4      1.0000 0.65110  0.72795  0.76241  Biso   1.000  Ni
  N1       1.0000 0.82068  0.21568  0.25414  Biso   1.000  N
  N2       1.0000 0.18081  0.75709  0.76241  Biso   1.000  N
  N3       1.0000 0.11868  0.24451  0.25414  Biso   1.000  N
  N4       1.0000 0.88281  0.72827  0.76241  Biso   1.000  N
  C57      1.0000 0.06499  0.32113  0.25414  Biso   1.000  C
  C58      1.0000 0.93650  0.65165  0.76241  Biso   1.000  C
  C59      1.0000 0.89553  0.28781  0.25414  Biso   1.000  C
  C60      1.0000 0.10596  0.68497  0.76241  Biso   1.000  C
