data_image0
_cell_length_a       17.147
_cell_length_b       23.322
_cell_length_c       25.255
_cell_angle_alpha    90
_cell_angle_beta     90
_cell_angle_gamma    90

loop_
  _atom_site_label
  _atom_site_occupancy
  _atom_site_fract_x
  _atom_site_fract_y
  _atom_site_fract_z
  _atom_site_thermal_displace_type
  _atom_site_B_iso_or_equiv
  _atom_site_type_symbol
  Zn1      1.0000 0.83571  0.84821  0.93724  Biso   1.000  Zn
  O1       1.0000 0.68712  0.28231  0.39390  Biso   1.000  O
  O2       1.0000 0.78381  0.23652  0.43722  Biso   1.000  O
  O3       1.0000 0.72578  0.96707  0.06070  Biso   1.000  O
  O4       1.0000 0.80790  0.91330  0.10691  Biso   1.000  O
  C1       1.0000 0.74042  0.20088  0.35581  Biso   1.000  C
  C2       1.0000 0.79658  0.16011  0.35482  Biso   1.000  C
  H1       1.0000 0.83280  0.15771  0.38309  Biso   1.000  H
  C3       1.0000 0.80189  0.12122  0.31210  Biso   1.000  C
  H2       1.0000 0.84417  0.09489  0.31130  Biso   1.000  H
  C4       1.0000 0.74911  0.12002  0.27242  Biso   1.000  C
  C5       1.0000 0.69161  0.16169  0.27381  Biso   1.000  C
  H3       1.0000 0.65137  0.16152  0.24791  Biso   1.000  H
  C6       1.0000 0.69231  0.20298  0.31190  Biso   1.000  C
  H4       1.0000 0.65802  0.23480  0.30822  Biso   1.000  H
  C7       1.0000 0.75588  0.07890  0.22819  Biso   1.000  C
  C8       1.0000 0.71359  0.08481  0.18579  Biso   1.000  C
  H5       1.0000 0.67767  0.11569  0.18420  Biso   1.000  H
  C9       1.0000 0.71861  0.04699  0.14160  Biso   1.000  C
  H6       1.0000 0.69079  0.05540  0.11000  Biso   1.000  H
  C10      1.0000 0.76392  0.99820  0.14500  Biso   1.000  C
  C11      1.0000 0.79868  0.98791  0.19212  Biso   1.000  C
  H7       1.0000 0.82510  0.95271  0.19790  Biso   1.000  H
  C12      1.0000 0.79582  0.02911  0.23219  Biso   1.000  C
  H8       1.0000 0.82341  0.02170  0.26411  Biso   1.000  H
  C13      1.0000 0.73750  0.24200  0.39849  Biso   1.000  C
  C14      1.0000 0.76637  0.95691  0.10089  Biso   1.000  C
  O5       1.0000 0.94372  0.84581  0.95490  Biso   1.000  O
  C15      1.0000 0.10637  0.82313  0.96112  Biso   1.000  C
  H9       1.0000 0.07902  0.80461  0.93320  Biso   1.000  H
  C16      1.0000 0.18277  0.82442  0.95922  Biso   1.000  C
  H10      1.0000 0.20960  0.80671  0.93051  Biso   1.000  H
  O6       1.0000 0.94372  0.84581  0.04510  Biso   1.000  O
  O7       1.0000 0.59550  0.90563  0.00000  Biso   1.000  O
  O8       1.0000 0.59591  0.80791  0.00000  Biso   1.000  O
  C17      1.0000 0.97358  0.84341  0.00000  Biso   1.000  C
  C18      1.0000 0.06549  0.84663  0.00000  Biso   1.000  C
  C19      1.0000 0.10900  0.87162  0.04078  Biso   1.000  C
  H11      1.0000 0.08287  0.88822  0.07020  Biso   1.000  H
  C20      1.0000 0.18499  0.87240  0.03868  Biso   1.000  C
  H12      1.0000 0.21240  0.88899  0.06759  Biso   1.000  H
  C21      1.0000 0.22517  0.85220  0.00000  Biso   1.000  C
  C22      1.0000 0.31177  0.85709  0.00000  Biso   1.000  C
  C23      1.0000 0.35289  0.80872  0.00000  Biso   1.000  C
  H13      1.0000 0.32612  0.77300  0.00000  Biso   1.000  H
  C24      1.0000 0.43687  0.80889  0.00000  Biso   1.000  C
  H14      1.0000 0.46451  0.77352  0.00000  Biso   1.000  H
  C25      1.0000 0.47618  0.85799  0.00000  Biso   1.000  C
  C26      1.0000 0.43232  0.90640  0.00000  Biso   1.000  C
  H15      1.0000 0.45821  0.94242  0.00000  Biso   1.000  H
  C27      1.0000 0.35172  0.90601  0.00000  Biso   1.000  C
  H16      1.0000 0.32420  0.94143  0.00000  Biso   1.000  H
  C28      1.0000 0.56150  0.85649  0.00000  Biso   1.000  C
  Zn2      1.0000 0.66431  0.34821  0.56278  Biso   1.000  Zn
  O9       1.0000 0.81291  0.78231  0.10612  Biso   1.000  O
  O10      1.0000 0.71622  0.73652  0.06280  Biso   1.000  O
  O11      1.0000 0.77419  0.46707  0.43928  Biso   1.000  O
  O12      1.0000 0.69207  0.41330  0.39311  Biso   1.000  O
  C29      1.0000 0.75961  0.70093  0.14421  Biso   1.000  C
  C30      1.0000 0.70339  0.66011  0.14520  Biso   1.000  C
  H17      1.0000 0.66717  0.65770  0.11689  Biso   1.000  H
  C31      1.0000 0.69808  0.62122  0.18788  Biso   1.000  C
  H18      1.0000 0.65580  0.59489  0.18871  Biso   1.000  H
  C32      1.0000 0.75092  0.62002  0.22760  Biso   1.000  C
  C33      1.0000 0.80842  0.66169  0.22621  Biso   1.000  C
  H19      1.0000 0.84860  0.66152  0.25211  Biso   1.000  H
  C34      1.0000 0.80772  0.70303  0.18812  Biso   1.000  C
  H20      1.0000 0.84201  0.73480  0.19180  Biso   1.000  H
  C35      1.0000 0.74409  0.57890  0.27179  Biso   1.000  C
  C36      1.0000 0.78638  0.58481  0.31420  Biso   1.000  C
  H21      1.0000 0.82230  0.61569  0.31582  Biso   1.000  H
  C37      1.0000 0.78142  0.54699  0.35838  Biso   1.000  C
  H22      1.0000 0.80918  0.55540  0.39002  Biso   1.000  H
  C38      1.0000 0.73610  0.49820  0.35502  Biso   1.000  C
  C39      1.0000 0.70129  0.48791  0.30790  Biso   1.000  C
  H23      1.0000 0.67487  0.45271  0.30212  Biso   1.000  H
  C40      1.0000 0.70420  0.52911  0.26779  Biso   1.000  C
  H24      1.0000 0.67662  0.52170  0.23591  Biso   1.000  H
  C41      1.0000 0.76252  0.74200  0.10149  Biso   1.000  C
  C42      1.0000 0.73360  0.45691  0.39909  Biso   1.000  C
  O13      1.0000 0.55631  0.34581  0.54512  Biso   1.000  O
  C43      1.0000 0.39097  0.37162  0.54080  Biso   1.000  C
  H25      1.0000 0.41710  0.38822  0.57022  Biso   1.000  H
  C44      1.0000 0.31498  0.37240  0.53870  Biso   1.000  C
  H26      1.0000 0.28757  0.38899  0.56761  Biso   1.000  H
  O14      1.0000 0.55631  0.34581  0.45492  Biso   1.000  O
  O15      1.0000 0.90447  0.40558  0.50002  Biso   1.000  O
  O16      1.0000 0.90412  0.30791  0.50002  Biso   1.000  O
  C45      1.0000 0.52639  0.34341  0.50002  Biso   1.000  C
  C46      1.0000 0.43448  0.34658  0.50002  Biso   1.000  C
  C47      1.0000 0.39360  0.32309  0.46110  Biso   1.000  C
  H27      1.0000 0.42101  0.30461  0.43322  Biso   1.000  H
  C48      1.0000 0.31720  0.32442  0.45920  Biso   1.000  C
  H28      1.0000 0.29037  0.30671  0.43049  Biso   1.000  H
  C49      1.0000 0.27480  0.35220  0.50002  Biso   1.000  C
  C50      1.0000 0.18820  0.35709  0.50002  Biso   1.000  C
  C51      1.0000 0.14708  0.30872  0.50002  Biso   1.000  C
  H29      1.0000 0.17391  0.27300  0.50002  Biso   1.000  H
  C52      1.0000 0.06310  0.30889  0.50002  Biso   1.000  C
  H30      1.0000 0.03552  0.27352  0.50002  Biso   1.000  H
  C53      1.0000 0.02379  0.35799  0.50002  Biso   1.000  C
  C54      1.0000 0.06771  0.40640  0.50002  Biso   1.000  C
  H31      1.0000 0.04181  0.44242  0.50002  Biso   1.000  H
  C55      1.0000 0.14831  0.40601  0.50002  Biso   1.000  C
  H32      1.0000 0.17577  0.44139  0.50002  Biso   1.000  H
  C56      1.0000 0.93847  0.35649  0.50002  Biso   1.000  C
  Zn3      1.0000 0.70805  0.91810  0.00000  Biso   1.000  Zn
  Zn4      1.0000 0.70199  0.78201  0.00000  Biso   1.000  Zn
  Zn5      1.0000 0.83571  0.84821  0.06280  Biso   1.000  Zn
  O17      1.0000 0.76952  0.84881  0.00000  Biso   1.000  O
  O18      1.0000 0.68712  0.28231  0.60610  Biso   1.000  O
  O19      1.0000 0.78381  0.23652  0.56282  Biso   1.000  O
  O20      1.0000 0.72578  0.96707  0.93930  Biso   1.000  O
  O21      1.0000 0.80790  0.91330  0.89309  Biso   1.000  O
  C57      1.0000 0.74042  0.20088  0.64419  Biso   1.000  C
  C58      1.0000 0.79658  0.16011  0.64522  Biso   1.000  C
  H33      1.0000 0.83280  0.15771  0.61691  Biso   1.000  H
  C59      1.0000 0.80189  0.12122  0.68790  Biso   1.000  C
  H34      1.0000 0.84417  0.09489  0.68869  Biso   1.000  H
  C60      1.0000 0.74911  0.12002  0.72762  Biso   1.000  C
  C61      1.0000 0.69161  0.16169  0.72619  Biso   1.000  C
  H35      1.0000 0.65137  0.16152  0.75209  Biso   1.000  H
  C62      1.0000 0.69231  0.20298  0.68810  Biso   1.000  C
  H36      1.0000 0.65802  0.23480  0.69182  Biso   1.000  H
  C63      1.0000 0.75588  0.07890  0.77181  Biso   1.000  C
  C64      1.0000 0.71359  0.08481  0.81422  Biso   1.000  C
  H37      1.0000 0.67767  0.11569  0.81580  Biso   1.000  H
  C65      1.0000 0.71861  0.04699  0.85840  Biso   1.000  C
  H38      1.0000 0.69079  0.05540  0.89000  Biso   1.000  H
  C66      1.0000 0.76392  0.99820  0.85500  Biso   1.000  C
  C67      1.0000 0.79868  0.98791  0.80792  Biso   1.000  C
  H39      1.0000 0.82510  0.95271  0.80210  Biso   1.000  H
  C68      1.0000 0.79582  0.02911  0.76781  Biso   1.000  C
  H40      1.0000 0.82341  0.02170  0.73589  Biso   1.000  H
  C69      1.0000 0.73750  0.24200  0.60150  Biso   1.000  C
  C70      1.0000 0.76637  0.95691  0.89911  Biso   1.000  C
  Zn6      1.0000 0.79192  0.41810  0.50002  Biso   1.000  Zn
  Zn7      1.0000 0.79804  0.28201  0.50002  Biso   1.000  Zn
  Zn8      1.0000 0.66431  0.34821  0.43722  Biso   1.000  Zn
  O22      1.0000 0.73051  0.34881  0.50002  Biso   1.000  O
  O23      1.0000 0.81291  0.78231  0.89392  Biso   1.000  O
  O24      1.0000 0.71622  0.73652  0.93720  Biso   1.000  O
  O25      1.0000 0.77419  0.46707  0.56072  Biso   1.000  O
  O26      1.0000 0.69207  0.41330  0.60689  Biso   1.000  O
  C71      1.0000 0.75961  0.70093  0.85579  Biso   1.000  C
  C72      1.0000 0.70339  0.66011  0.85480  Biso   1.000  C
  H41      1.0000 0.66717  0.65770  0.88311  Biso   1.000  H
  C73      1.0000 0.69808  0.62122  0.81212  Biso   1.000  C
  H42      1.0000 0.65580  0.59489  0.81132  Biso   1.000  H
  C74      1.0000 0.75092  0.62002  0.77240  Biso   1.000  C
  C75      1.0000 0.80842  0.66169  0.77379  Biso   1.000  C
  H43      1.0000 0.84860  0.66152  0.74789  Biso   1.000  H
  C76      1.0000 0.80772  0.70303  0.81192  Biso   1.000  C
  H44      1.0000 0.84201  0.73480  0.80820  Biso   1.000  H
  C77      1.0000 0.74409  0.57890  0.72821  Biso   1.000  C
  C78      1.0000 0.78638  0.58481  0.68580  Biso   1.000  C
  H45      1.0000 0.82230  0.61569  0.68422  Biso   1.000  H
  C79      1.0000 0.78142  0.54699  0.64162  Biso   1.000  C
  H46      1.0000 0.80918  0.55540  0.61002  Biso   1.000  H
  C80      1.0000 0.73610  0.49820  0.64502  Biso   1.000  C
  C81      1.0000 0.70129  0.48791  0.69210  Biso   1.000  C
  H47      1.0000 0.67487  0.45271  0.69792  Biso   1.000  H
  C82      1.0000 0.70420  0.52911  0.73221  Biso   1.000  C
  H48      1.0000 0.67662  0.52170  0.76409  Biso   1.000  H
  C83      1.0000 0.76252  0.74200  0.89851  Biso   1.000  C
  C84      1.0000 0.73360  0.45691  0.60091  Biso   1.000  C
