data_image0
_cell_length_a       14.5969
_cell_length_b       14.5969
_cell_length_c       14.5969
_cell_angle_alpha    59.9997
_cell_angle_beta     59.9996
_cell_angle_gamma    59.9996

_symmetry_space_group_name_H-M    "P 1"
_symmetry_int_tables_number       1

loop_
  _symmetry_equiv_pos_as_xyz
  'x, y, z'

loop_
  _atom_site_label
  _atom_site_occupancy
  _atom_site_fract_x
  _atom_site_fract_y
  _atom_site_fract_z
  _atom_site_thermal_displace_type
  _atom_site_B_iso_or_equiv
  _atom_site_type_symbol
  H1       1.0000 0.14991  0.59215  0.41183  Biso   1.000  H
  H2       1.0000 0.57549  0.16654  0.86697  Biso   1.000  H
  H3       1.0000 0.39932  0.87105  0.16245  Biso   1.000  H
  H4       1.0000 0.85442  0.41597  0.58804  Biso   1.000  H
  H5       1.0000 0.39931  0.16655  0.58805  Biso   1.000  H
  H6       1.0000 0.85439  0.59216  0.16246  Biso   1.000  H
  H7       1.0000 0.14987  0.41600  0.86697  Biso   1.000  H
  H8       1.0000 0.57547  0.87112  0.41182  Biso   1.000  H
  H9       1.0000 0.57550  0.41599  0.16245  Biso   1.000  H
  H10      1.0000 0.14990  0.87109  0.58804  Biso   1.000  H
  H11      1.0000 0.85445  0.16659  0.41182  Biso   1.000  H
  H12      1.0000 0.39933  0.59215  0.86697  Biso   1.000  H
  H13      1.0000 0.57546  0.16658  0.41184  Biso   1.000  H
  H14      1.0000 0.14986  0.59217  0.86697  Biso   1.000  H
  H15      1.0000 0.85440  0.41597  0.16245  Biso   1.000  H
  H16      1.0000 0.39932  0.87108  0.58802  Biso   1.000  H
  H17      1.0000 0.14991  0.41599  0.58803  Biso   1.000  H
  H18      1.0000 0.57551  0.87107  0.16245  Biso   1.000  H
  H19      1.0000 0.39933  0.16652  0.86697  Biso   1.000  H
  H20      1.0000 0.85445  0.59212  0.41184  Biso   1.000  H
  H21      1.0000 0.39931  0.59217  0.16245  Biso   1.000  H
  H22      1.0000 0.85442  0.16658  0.58802  Biso   1.000  H
  H23      1.0000 0.14991  0.87111  0.41183  Biso   1.000  H
  H24      1.0000 0.57550  0.41600  0.86697  Biso   1.000  H
  H25      1.0000 0.89983  0.91651  0.29219  Biso   1.000  H
  H26      1.0000 0.89975  0.91643  0.91237  Biso   1.000  H
  H27      1.0000 0.27978  0.91643  0.91238  Biso   1.000  H
  H28      1.0000 0.89977  0.29645  0.91238  Biso   1.000  H
  C1       1.0000 0.08556  0.55173  0.45235  Biso   1.000  C
  C2       1.0000 0.53508  0.10218  0.93124  Biso   1.000  C
  C3       1.0000 0.43983  0.93531  0.09811  Biso   1.000  C
  C4       1.0000 0.91869  0.45647  0.54764  Biso   1.000  C
  C5       1.0000 0.43980  0.10220  0.54764  Biso   1.000  C
  C6       1.0000 0.91864  0.55174  0.09812  Biso   1.000  C
  C7       1.0000 0.08551  0.45650  0.93124  Biso   1.000  C
  C8       1.0000 0.53506  0.93537  0.45234  Biso   1.000  C
  C9       1.0000 0.53508  0.45650  0.09811  Biso   1.000  C
  C10      1.0000 0.08555  0.93536  0.54763  Biso   1.000  C
  C11      1.0000 0.91870  0.10223  0.45235  Biso   1.000  C
  C12      1.0000 0.43983  0.55175  0.93124  Biso   1.000  C
  C13      1.0000 0.53505  0.10222  0.45236  Biso   1.000  C
  C14      1.0000 0.08551  0.55175  0.93124  Biso   1.000  C
  C15      1.0000 0.91865  0.45649  0.09811  Biso   1.000  C
  C16      1.0000 0.43981  0.93534  0.54763  Biso   1.000  C
  C17      1.0000 0.08555  0.45648  0.54763  Biso   1.000  C
  C18      1.0000 0.53508  0.93532  0.09812  Biso   1.000  C
  C19      1.0000 0.43983  0.10217  0.93124  Biso   1.000  C
  C20      1.0000 0.91870  0.55172  0.45235  Biso   1.000  C
  C21      1.0000 0.43982  0.55175  0.09811  Biso   1.000  C
  C22      1.0000 0.91868  0.10223  0.54762  Biso   1.000  C
  C23      1.0000 0.08556  0.93536  0.45235  Biso   1.000  C
  C24      1.0000 0.53509  0.45650  0.93124  Biso   1.000  C
  C25      1.0000 0.29397  0.01568  0.01174  Biso   1.000  C
  C26      1.0000 0.99900  0.31070  0.69965  Biso   1.000  C
  C27      1.0000 0.99907  0.70366  0.30652  Biso   1.000  C
  C28      1.0000 0.68694  0.01570  0.01173  Biso   1.000  C
  C29      1.0000 0.99904  0.31062  0.01173  Biso   1.000  C
  C30      1.0000 0.68698  0.01575  0.30651  Biso   1.000  C
  C31      1.0000 0.29404  0.01564  0.69965  Biso   1.000  C
  C32      1.0000 0.99901  0.70361  0.01174  Biso   1.000  C
  C33      1.0000 0.99908  0.01575  0.30652  Biso   1.000  C
  C34      1.0000 0.29394  0.70361  0.01174  Biso   1.000  C
  C35      1.0000 0.68695  0.31063  0.01173  Biso   1.000  C
  C36      1.0000 0.99898  0.01567  0.69964  Biso   1.000  C
  C37      1.0000 0.00158  0.59975  0.40542  Biso   1.000  C
  C38      1.0000 0.58307  0.01821  0.01415  Biso   1.000  C
  C39      1.0000 0.39291  0.01819  0.01415  Biso   1.000  C
  C40      1.0000 0.00154  0.40957  0.59569  Biso   1.000  C
  C41      1.0000 0.39291  0.01819  0.59569  Biso   1.000  C
  C42      1.0000 0.00153  0.59974  0.01415  Biso   1.000  C
  C43      1.0000 0.00154  0.40957  0.01414  Biso   1.000  C
  C44      1.0000 0.58308  0.01825  0.40542  Biso   1.000  C
  C45      1.0000 0.58308  0.40958  0.01414  Biso   1.000  C
  C46      1.0000 0.00153  0.01821  0.59568  Biso   1.000  C
  C47      1.0000 0.00158  0.01825  0.40542  Biso   1.000  C
  C48      1.0000 0.39290  0.59974  0.01415  Biso   1.000  C
  O1       1.0000 0.07551  0.74490  0.26858  Biso   1.000  O
  O2       1.0000 0.72816  0.09217  0.93201  Biso   1.000  O
  O3       1.0000 0.25600  0.93596  0.08824  Biso   1.000  O
  O4       1.0000 0.91926  0.27276  0.74088  Biso   1.000  O
  O5       1.0000 0.25611  0.09207  0.74090  Biso   1.000  O
  O6       1.0000 0.91928  0.74480  0.08823  Biso   1.000  O
  O7       1.0000 0.07552  0.27264  0.93202  Biso   1.000  O
  O8       1.0000 0.72820  0.93603  0.26855  Biso   1.000  O
  O9       1.0000 0.72814  0.27268  0.08822  Biso   1.000  O
  O10      1.0000 0.07542  0.93591  0.74089  Biso   1.000  O
  O11      1.0000 0.91936  0.09220  0.26856  Biso   1.000  O
  O12      1.0000 0.25597  0.74480  0.93203  Biso   1.000  O
  O13      1.0000 0.72822  0.09220  0.26857  Biso   1.000  O
  O14      1.0000 0.07546  0.74484  0.93201  Biso   1.000  O
  O15      1.0000 0.91932  0.27266  0.08822  Biso   1.000  O
  O16      1.0000 0.25608  0.93590  0.74087  Biso   1.000  O
  O17      1.0000 0.07546  0.27276  0.74088  Biso   1.000  O
  O18      1.0000 0.72813  0.93597  0.08822  Biso   1.000  O
  O19      1.0000 0.25601  0.09214  0.93202  Biso   1.000  O
  O20      1.0000 0.91935  0.74487  0.26856  Biso   1.000  O
  O21      1.0000 0.25600  0.74480  0.08822  Biso   1.000  O
  O22      1.0000 0.91924  0.09212  0.74088  Biso   1.000  O
  O23      1.0000 0.07553  0.93602  0.26856  Biso   1.000  O
  O24      1.0000 0.72815  0.27266  0.93202  Biso   1.000  O
  O25      1.0000 0.19691  0.94400  0.94006  Biso   1.000  O
  O26      1.0000 0.92735  0.21357  0.94005  Biso   1.000  O
  O27      1.0000 0.92744  0.94411  0.20934  Biso   1.000  O
  O28      1.0000 0.92734  0.94402  0.94006  Biso   1.000  O
  O29      1.0000 0.84398  0.06170  0.05762  Biso   1.000  O
  O30      1.0000 0.04502  0.86065  0.05763  Biso   1.000  O
  O31      1.0000 0.04499  0.06166  0.85669  Biso   1.000  O
  O32      1.0000 0.04503  0.06169  0.05762  Biso   1.000  O
  Zr1      1.0000 0.11486  0.89135  0.12744  Biso   1.000  Zr
  Zr2      1.0000 0.87465  0.13151  0.88733  Biso   1.000  Zr
  Zr3      1.0000 0.11485  0.13150  0.88733  Biso   1.000  Zr
  Zr4      1.0000 0.87467  0.89135  0.12743  Biso   1.000  Zr
  Zr5      1.0000 0.87468  0.13154  0.12743  Biso   1.000  Zr
  Zr6      1.0000 0.11483  0.89132  0.88733  Biso   1.000  Zr
